<?xml version="1.0" encoding="UTF-8"?>

<!-- generated on 2024-04-16 14:19:53 by Eclipse SUMO netconvert Version 1.19.0
<configuration xmlns:xsi="http://www.w3.org/2001/XMLSchema-instance" xsi:noNamespaceSchemaLocation="http://sumo.dlr.de/xsd/netconvertConfiguration.xsd">

    <input>
        <sumo-net-file value="new_osm.net.xml"/>
    </input>

    <output>
        <plain-output-prefix value="old"/>
        <output.street-names value="true"/>
    </output>

    <processing>
        <geometry.min-radius.fix.railways value="false"/>
        <geometry.max-grade.fix value="false"/>
        <offset.disable-normalization value="true"/>
        <lefthand value="0"/>
    </processing>

    <junctions>
        <no-turnarounds value="true"/>
        <junctions.corner-detail value="5"/>
        <junctions.limit-turn-speed value="5.50"/>
        <rectangular-lane-cut value="0"/>
    </junctions>

    <pedestrian>
        <walkingareas value="0"/>
    </pedestrian>

</configuration>
-->

<connections version="1.16" xmlns:xsi="http://www.w3.org/2001/XMLSchema-instance" xsi:noNamespaceSchemaLocation="http://sumo.dlr.de/xsd/connections_file.xsd">
    <connection from="-1018687329#2" to="-26791216#3" fromLane="0" toLane="0"/>
    <connection from="-1018687329#2" to="-1018687330#0" fromLane="0" toLane="0"/>
    <connection from="-1018687329#2" to="1018687329#2" fromLane="0" toLane="0"/>

    <connection from="-1018687329#5" to="-172954089#0" fromLane="0" toLane="0"/>
    <connection from="-1018687329#5" to="-1018687329#2" fromLane="0" toLane="0"/>
    <connection from="-1018687329#5" to="172954089#2" fromLane="0" toLane="0"/>
    <connection from="-1018687329#5" to="1018687329#5" fromLane="0" toLane="0"/>

    <connection from="-1018687330#0" to="-26791090" fromLane="0" toLane="0"/>
    <connection from="-1018687330#0" to="158937220" fromLane="0" toLane="0"/>
    <connection from="-1018687330#0" to="1018687330#0" fromLane="0" toLane="0"/>

    <connection from="-101893167#0" to="160307897#4" fromLane="0" toLane="0"/>
    <connection from="-101893167#0" to="101893167#0" fromLane="0" toLane="0"/>

    <connection from="-101893519#1" to="-244421769#4" fromLane="0" toLane="0"/>
    <connection from="-101893519#1" to="-101896234#4" fromLane="0" toLane="0"/>
    <connection from="-101893519#1" to="244421769#7" fromLane="0" toLane="0"/>
    <connection from="-101893519#1" to="101893519#1" fromLane="0" toLane="0"/>

    <connection from="-101893519#4" to="-101893519#1" fromLane="0" toLane="0"/>
    <connection from="-101893519#4" to="-101893560#4" fromLane="0" toLane="0"/>
    <connection from="-101893519#4" to="101893519#4" fromLane="0" toLane="0"/>

    <connection from="-101893519#7" to="244450508#5" fromLane="0" toLane="0"/>
    <connection from="-101893519#7" to="-101893519#4" fromLane="0" toLane="0"/>
    <connection from="-101893519#7" to="-244450508#2" fromLane="0" toLane="0"/>
    <connection from="-101893519#7" to="101893519#7" fromLane="0" toLane="0"/>

    <connection from="-101893555#1" to="51812996#4" fromLane="0" toLane="0"/>
    <connection from="-101893555#1" to="-51812996#1" fromLane="0" toLane="0"/>
    <connection from="-101893555#1" to="101893555#1" fromLane="0" toLane="0"/>

    <connection from="-101893560#1" to="244450534#4" fromLane="0" toLane="0"/>
    <connection from="-101893560#1" to="-101893555#1" fromLane="0" toLane="0"/>
    <connection from="-101893560#1" to="-244450534#1" fromLane="0" toLane="0"/>
    <connection from="-101893560#1" to="101893560#1" fromLane="0" toLane="0"/>

    <connection from="-101893560#2" to="-101893560#1" fromLane="0" toLane="0"/>

    <connection from="-101893560#4" to="-101897224#1" fromLane="0" toLane="0"/>
    <connection from="-101893560#4" to="-101893560#2" fromLane="0" toLane="0"/>
    <connection from="-101893560#4" to="101897224#4" fromLane="0" toLane="0"/>
    <connection from="-101893560#4" to="101893560#4" fromLane="0" toLane="0"/>

    <connection from="-101894851#1" to="51813011#4" fromLane="0" toLane="0"/>
    <connection from="-101894851#1" to="-159118869" fromLane="0" toLane="0"/>
    <connection from="-101894851#1" to="101894851#1" fromLane="0" toLane="0"/>

    <connection from="-101894851#10" to="158982855#3" fromLane="0" toLane="0"/>
    <connection from="-101894851#10" to="-101894851#8" fromLane="0" toLane="0"/>
    <connection from="-101894851#10" to="-158982855#0" fromLane="0" toLane="0"/>
    <connection from="-101894851#10" to="101894851#10" fromLane="0" toLane="0"/>

    <connection from="-101894851#11" to="-101894851#10" fromLane="0" toLane="0"/>

    <connection from="-101894851#12" to="-101894851#11" fromLane="0" toLane="0"/>

    <connection from="-101894851#14" to="-326352586#5" fromLane="0" toLane="0"/>
    <connection from="-101894851#14" to="-101894851#12" fromLane="0" toLane="0"/>
    <connection from="-101894851#14" to="326352586#7" fromLane="0" toLane="0"/>
    <connection from="-101894851#14" to="101894851#14" fromLane="0" toLane="0"/>

    <connection from="-101894851#15" to="-101894851#14" fromLane="0" toLane="0"/>
    <connection from="-101894851#15" to="1245180031" fromLane="0" toLane="0"/>

    <connection from="-101894851#18" to="244450505#6" fromLane="0" toLane="0"/>
    <connection from="-101894851#18" to="-101894851#15" fromLane="0" toLane="0"/>
    <connection from="-101894851#18" to="-244450505#3" fromLane="0" toLane="0"/>
    <connection from="-101894851#18" to="101894851#18" fromLane="0" toLane="0"/>

    <connection from="-101894851#19" to="1245180020" fromLane="0" toLane="0"/>
    <connection from="-101894851#19" to="-101894851#18" fromLane="0" toLane="0"/>

    <connection from="-101894851#2" to="677000019" fromLane="0" toLane="0"/>
    <connection from="-101894851#2" to="-101894851#1" fromLane="0" toLane="0"/>

    <connection from="-101894851#3" to="-101894851#2" fromLane="0" toLane="0"/>

    <connection from="-101894851#8" to="-244618582#2" fromLane="0" toLane="0"/>
    <connection from="-101894851#8" to="-101894851#3" fromLane="0" toLane="0"/>
    <connection from="-101894851#8" to="244618582#7" fromLane="0" toLane="0"/>
    <connection from="-101894851#8" to="101894851#8" fromLane="0" toLane="0"/>

    <connection from="-101894927#1" to="-326352586#7" fromLane="0" toLane="0"/>
    <connection from="-101894927#1" to="326352586#10" fromLane="0" toLane="0"/>
    <connection from="-101894927#1" to="101894927#1" fromLane="0" toLane="0"/>

    <connection from="-101895798#1" to="244450510#4" fromLane="0" toLane="0"/>
    <connection from="-101895798#1" to="-51812996#9" fromLane="0" toLane="0"/>
    <connection from="-101895798#1" to="-244450510#1" fromLane="0" toLane="0"/>
    <connection from="-101895798#1" to="101895798#1" fromLane="0" toLane="0"/>

    <connection from="-101896234#1" to="-330461423#1" fromLane="0" toLane="0"/>
    <connection from="-101896234#1" to="-60443726#2" fromLane="0" toLane="0"/>
    <connection from="-101896234#1" to="330461423#4" fromLane="0" toLane="0"/>
    <connection from="-101896234#1" to="101896234#1" fromLane="0" toLane="0"/>

    <connection from="-101896234#4" to="-101896234#1" fromLane="0" toLane="0"/>
    <connection from="-101896234#4" to="51813005#1" fromLane="0" toLane="0"/>
    <connection from="-101896234#4" to="101896234#4" fromLane="0" toLane="0"/>

    <connection from="-101896832#1" to="-330461423#4" fromLane="0" toLane="0"/>
    <connection from="-101896832#1" to="-244024548#0" fromLane="0" toLane="0"/>
    <connection from="-101896832#1" to="330461423#7" fromLane="0" toLane="0"/>
    <connection from="-101896832#1" to="101896832#1" fromLane="0" toLane="0"/>

    <connection from="-101896832#4" to="-51813005#1" fromLane="0" toLane="0"/>
    <connection from="-101896832#4" to="-101896832#1" fromLane="0" toLane="0"/>
    <connection from="-101896832#4" to="101898505#1" fromLane="0" toLane="0"/>
    <connection from="-101896832#4" to="101896832#4" fromLane="0" toLane="0"/>

    <connection from="-101897224#1" to="-244421769#7" fromLane="0" toLane="0"/>
    <connection from="-101897224#1" to="-101896832#4" fromLane="0" toLane="0"/>
    <connection from="-101897224#1" to="244421769#10" fromLane="0" toLane="0"/>
    <connection from="-101897224#1" to="101897224#1" fromLane="0" toLane="0"/>

    <connection from="-101897224#4" to="101893560#4" fromLane="0" toLane="0"/>
    <connection from="-101897224#4" to="-101897224#1" fromLane="0" toLane="0"/>
    <connection from="-101897224#4" to="-101893560#2" fromLane="0" toLane="0"/>
    <connection from="-101897224#4" to="101897224#4" fromLane="0" toLane="0"/>

    <connection from="-101897574#1" to="60443718#3" fromLane="0" toLane="0"/>
    <connection from="-101897574#1" to="-60443722#11" fromLane="0" toLane="0"/>
    <connection from="-101897574#1" to="-60443718#2" fromLane="0" toLane="0"/>
    <connection from="-101897574#1" to="101897574#1" fromLane="0" toLane="0"/>

    <connection from="-101897574#10" to="-330461420#1" fromLane="0" toLane="0"/>
    <connection from="-101897574#10" to="-101897574#8" fromLane="0" toLane="0"/>
    <connection from="-101897574#10" to="330461420#4" fromLane="0" toLane="0"/>
    <connection from="-101897574#10" to="101897574#10" fromLane="0" toLane="0"/>

    <connection from="-101897574#4" to="-101897574#1" fromLane="0" toLane="0"/>
    <connection from="-101897574#4" to="60443732#1" fromLane="0" toLane="0"/>
    <connection from="-101897574#4" to="101897574#4" fromLane="0" toLane="0"/>

    <connection from="-101897574#7" to="-60443729#1" fromLane="0" toLane="0"/>
    <connection from="-101897574#7" to="-101897574#4" fromLane="0" toLane="0"/>
    <connection from="-101897574#7" to="101898198#1" fromLane="0" toLane="0"/>
    <connection from="-101897574#7" to="101897574#7" fromLane="0" toLane="0"/>

    <connection from="-101897574#8" to="-101897574#7" fromLane="0" toLane="0"/>

    <connection from="-101898194#1" to="60443718#7" fromLane="0" toLane="0"/>
    <connection from="-101898194#1" to="-60443718#4" fromLane="0" toLane="0"/>
    <connection from="-101898194#1" to="101898194#1" fromLane="0" toLane="0"/>

    <connection from="-101898194#4" to="-101898194#1" fromLane="0" toLane="0"/>
    <connection from="-101898194#4" to="60443729#1" fromLane="0" toLane="0"/>
    <connection from="-101898194#4" to="101898194#4" fromLane="0" toLane="0"/>

    <connection from="-101898198#1" to="101897574#7" fromLane="0" toLane="0"/>
    <connection from="-101898198#1" to="-60443729#1" fromLane="0" toLane="0"/>
    <connection from="-101898198#1" to="-101897574#4" fromLane="0" toLane="0"/>
    <connection from="-101898198#1" to="101898198#1" fromLane="0" toLane="0"/>

    <connection from="-101898420#1" to="244450505#1" fromLane="0" toLane="0"/>
    <connection from="-101898420#1" to="-101894927#1" fromLane="0" toLane="0"/>
    <connection from="-101898420#1" to="-101893167#0" fromLane="0" toLane="0"/>
    <connection from="-101898420#1" to="101898420#1" fromLane="0" toLane="0"/>

    <connection from="-101898505#1" to="101896832#4" fromLane="0" toLane="0"/>
    <connection from="-101898505#1" to="-51813005#1" fromLane="0" toLane="0"/>
    <connection from="-101898505#1" to="-101896832#1" fromLane="0" toLane="0"/>
    <connection from="-101898505#1" to="101898505#1" fromLane="0" toLane="0"/>

    <connection from="-101898505#4" to="-244450534#7" fromLane="0" toLane="0"/>
    <connection from="-101898505#4" to="-101898505#1" fromLane="0" toLane="0"/>
    <connection from="-101898505#4" to="244450534#9" fromLane="0" toLane="0"/>
    <connection from="-101898505#4" to="101898505#4" fromLane="0" toLane="0"/>

    <connection from="-101898564#1" to="1079011030#1" fromLane="0" toLane="0"/>
    <connection from="-101898564#1" to="-60443732#1" fromLane="0" toLane="0"/>
    <connection from="-101898564#1" to="244421779#1" fromLane="0" toLane="2"/>
    <connection from="-101898564#1" to="101898564#1" fromLane="0" toLane="0"/>

    <connection from="-101898564#2" to="-101898564#1" fromLane="0" toLane="0"/>

    <connection from="-101898714#1" to="-401628854#1" fromLane="0" toLane="0"/>
    <connection from="-101898714#1" to="-401628855#1" fromLane="0" toLane="0"/>
    <connection from="-101898714#1" to="-911549091#3" fromLane="0" toLane="0"/>
    <connection from="-101898714#1" to="101898714#1" fromLane="0" toLane="1"/>

    <connection from="-101898714#2" to="443227501#0" fromLane="0" toLane="0"/>
    <connection from="-101898714#2" to="-101898714#1" fromLane="0" toLane="0"/>

    <connection from="-101898714#3" to="-101898714#2" fromLane="0" toLane="0"/>

    <connection from="-101898896#0" to="1079011028#1" fromLane="0" toLane="0"/>
    <connection from="-101898896#0" to="-101893519#7" fromLane="0" toLane="0"/>
    <connection from="-101898896#0" to="1079011032#1" fromLane="0" toLane="2"/>
    <connection from="-101898896#0" to="101898896#0" fromLane="0" toLane="0"/>

    <connection from="-101898896#3" to="-101898896#0" fromLane="0" toLane="0"/>
    <connection from="-101898896#3" to="-101898902#0" fromLane="0" toLane="0"/>
    <connection from="-101898896#3" to="101898896#3" fromLane="0" toLane="0"/>

    <connection from="-101898896#6" to="-101898896#3" fromLane="0" toLane="0"/>
    <connection from="-101898896#6" to="-101898898#5" fromLane="0" toLane="0"/>
    <connection from="-101898896#6" to="101898896#6" fromLane="0" toLane="0"/>

    <connection from="-101898896#9" to="-101898896#6" fromLane="0" toLane="0"/>
    <connection from="-101898896#9" to="-101898897#6" fromLane="0" toLane="0"/>
    <connection from="-101898896#9" to="101898896#9" fromLane="0" toLane="0"/>

    <connection from="-101898897#0" to="330461421#1" fromLane="0" toLane="0"/>
    <connection from="-101898897#0" to="-330461421#0" fromLane="0" toLane="0"/>
    <connection from="-101898897#0" to="101898897#0" fromLane="0" toLane="0"/>

    <connection from="-101898897#3" to="-101898900#4" fromLane="0" toLane="0"/>
    <connection from="-101898897#3" to="-101898897#0" fromLane="0" toLane="0"/>
    <connection from="-101898897#3" to="101898900#7" fromLane="0" toLane="0"/>
    <connection from="-101898897#3" to="101898897#3" fromLane="0" toLane="0"/>

    <connection from="-101898897#6" to="-101898899#3" fromLane="0" toLane="0"/>
    <connection from="-101898897#6" to="-101898897#3" fromLane="0" toLane="0"/>
    <connection from="-101898897#6" to="101898899#6" fromLane="0" toLane="0"/>
    <connection from="-101898897#6" to="101898897#6" fromLane="0" toLane="0"/>

    <connection from="-101898898#0" to="330461421#2" fromLane="0" toLane="0"/>
    <connection from="-101898898#0" to="-330461421#1" fromLane="0" toLane="0"/>
    <connection from="-101898898#0" to="101898898#0" fromLane="0" toLane="0"/>

    <connection from="-101898898#3" to="-101898900#1" fromLane="0" toLane="0"/>
    <connection from="-101898898#3" to="-101898898#0" fromLane="0" toLane="0"/>
    <connection from="-101898898#3" to="101898900#4" fromLane="0" toLane="0"/>
    <connection from="-101898898#3" to="101898898#3" fromLane="0" toLane="0"/>

    <connection from="-101898898#5" to="-101898899#1" fromLane="0" toLane="0"/>
    <connection from="-101898898#5" to="-101898898#3" fromLane="0" toLane="0"/>
    <connection from="-101898898#5" to="101898899#3" fromLane="0" toLane="0"/>
    <connection from="-101898898#5" to="101898898#5" fromLane="0" toLane="0"/>

    <connection from="-101898899#0" to="1079011026#2" fromLane="0" toLane="0"/>
    <connection from="-101898899#0" to="101898899#0" fromLane="0" toLane="0"/>

    <connection from="-101898899#1" to="101898902#0" fromLane="0" toLane="0"/>
    <connection from="-101898899#1" to="-101898899#0" fromLane="0" toLane="0"/>
    <connection from="-101898899#1" to="101898899#1" fromLane="0" toLane="0"/>

    <connection from="-101898899#3" to="101898898#5" fromLane="0" toLane="0"/>
    <connection from="-101898899#3" to="-101898899#1" fromLane="0" toLane="0"/>
    <connection from="-101898899#3" to="-101898898#3" fromLane="0" toLane="0"/>
    <connection from="-101898899#3" to="101898899#3" fromLane="0" toLane="0"/>

    <connection from="-101898899#6" to="101898897#6" fromLane="0" toLane="0"/>
    <connection from="-101898899#6" to="-101898899#3" fromLane="0" toLane="0"/>
    <connection from="-101898899#6" to="-101898897#3" fromLane="0" toLane="0"/>
    <connection from="-101898899#6" to="101898899#6" fromLane="0" toLane="0"/>

    <connection from="-101898900#1" to="1079011026#1" fromLane="0" toLane="0"/>
    <connection from="-101898900#1" to="159059623#2" fromLane="0" toLane="0"/>
    <connection from="-101898900#1" to="1079011034#1" fromLane="0" toLane="2"/>
    <connection from="-101898900#1" to="101898900#1" fromLane="0" toLane="0"/>

    <connection from="-101898900#4" to="101898898#3" fromLane="0" toLane="0"/>
    <connection from="-101898900#4" to="-101898900#1" fromLane="0" toLane="0"/>
    <connection from="-101898900#4" to="-101898898#0" fromLane="0" toLane="0"/>
    <connection from="-101898900#4" to="101898900#4" fromLane="0" toLane="0"/>

    <connection from="-101898900#7" to="101898897#3" fromLane="0" toLane="0"/>
    <connection from="-101898900#7" to="-101898900#4" fromLane="0" toLane="0"/>
    <connection from="-101898900#7" to="-101898897#0" fromLane="0" toLane="0"/>
    <connection from="-101898900#7" to="101898900#7" fromLane="0" toLane="0"/>

    <connection from="-101898901#1" to="-330461420#4" fromLane="0" toLane="0"/>
    <connection from="-101898901#1" to="101898901#1" fromLane="0" toLane="0"/>

    <connection from="-101898902#0" to="-101898899#0" fromLane="0" toLane="0"/>
    <connection from="-101898902#0" to="101898899#1" fromLane="0" toLane="0"/>
    <connection from="-101898902#0" to="101898902#0" fromLane="0" toLane="0"/>

    <connection from="-103532303#0" to="-103534039#3" fromLane="0" toLane="0"/>
    <connection from="-103532303#0" to="374332381#0" fromLane="0" toLane="0"/>

    <connection from="-103532303#1" to="-103532303#0" fromLane="0" toLane="0"/>

    <connection from="-103532303#2" to="51268654#1" fromLane="0" toLane="0"/>
    <connection from="-103532303#2" to="-103532303#1" fromLane="0" toLane="0"/>

    <connection from="-103533006#1" to="-103532303#2" fromLane="0" toLane="0"/>
    <connection from="-103533006#1" to="-51268695#9" fromLane="0" toLane="0"/>
    <connection from="-103533006#1" to="-144500731#5" fromLane="0" toLane="0"/>
    <connection from="-103533006#1" to="103533006#1" fromLane="0" toLane="0"/>

    <connection from="-103533006#10" to="51268662#0" fromLane="0" toLane="0"/>
    <connection from="-103533006#10" to="-103533006#9" fromLane="0" toLane="0"/>

    <connection from="-103533006#11" to="-286016700#1" fromLane="0" toLane="0"/>
    <connection from="-103533006#11" to="-103533006#10" fromLane="0" toLane="0"/>
    <connection from="-103533006#11" to="286016699#0" fromLane="0" toLane="0"/>

    <connection from="-103533006#2" to="-103533006#1" fromLane="0" toLane="0"/>

    <connection from="-103533006#3" to="-103533006#2" fromLane="0" toLane="0"/>

    <connection from="-103533006#5" to="-103533006#3" fromLane="0" toLane="0"/>
    <connection from="-103533006#5" to="-763092089" fromLane="0" toLane="0"/>

    <connection from="-103533006#8" to="-103533006#5" fromLane="0" toLane="0"/>
    <connection from="-103533006#8" to="452108515#1" fromLane="0" toLane="0"/>

    <connection from="-103533006#9" to="-103533006#8" fromLane="0" toLane="0"/>
    <connection from="-103533006#9" to="-286016698#1" fromLane="0" toLane="0"/>

    <connection from="-103534039#2" to="144500732#2" fromLane="0" toLane="0"/>
    <connection from="-103534039#2" to="-189494285#3" fromLane="0" toLane="0"/>
    <connection from="-103534039#2" to="144500729#12" fromLane="0" toLane="3"/>
    <connection from="-103534039#2" to="103534039#2" fromLane="0" toLane="0"/>

    <connection from="-103534039#3" to="-103534039#2" fromLane="0" toLane="0"/>

    <connection from="-1036712514#0" to="593840519#7" fromLane="0" toLane="1"/>
    <connection from="-1036712514#0" to="-1036712514#2" fromLane="0" toLane="0"/>
    <connection from="-1036712514#0" to="-49788379#6" fromLane="0" toLane="0"/>
    <connection from="-1036712514#0" to="1036712514#3" fromLane="0" toLane="0"/>
    <connection from="-1036712514#0" to="-593840519#6" fromLane="0" toLane="2"/>

    <connection from="-1036712514#1" to="593840519#6" fromLane="0" toLane="0"/>
    <connection from="-1036712514#1" to="-1036712514#0" fromLane="0" toLane="0"/>
    <connection from="-1036712514#1" to="-593840519#5" fromLane="0" toLane="2"/>
    <connection from="-1036712514#1" to="1036712514#1" fromLane="0" toLane="0"/>

    <connection from="-1036712514#2" to="-593840519#7" fromLane="0" toLane="0"/>
    <connection from="-1036712514#2" to="-1036712514#1" fromLane="0" toLane="0"/>
    <connection from="-1036712514#2" to="593840519#8" fromLane="0" toLane="2"/>
    <connection from="-1036712514#2" to="1036712514#2" fromLane="0" toLane="0"/>

    <connection from="-1038718484" to="183946735#2" fromLane="0" toLane="0"/>
    <connection from="-1038718484" to="-183946735#1" fromLane="0" toLane="0"/>
    <connection from="-1038718484" to="1038718484" fromLane="0" toLane="0"/>

    <connection from="-1042128035#0" to="49153838#6" fromLane="0" toLane="1"/>
    <connection from="-1042128035#0" to="1042128035#0" fromLane="0" toLane="0"/>

    <connection from="-1042128035#2" to="49153824#7" fromLane="0" toLane="0"/>
    <connection from="-1042128035#2" to="-1042128035#0" fromLane="0" toLane="0"/>
    <connection from="-1042128035#2" to="1042128035#2" fromLane="0" toLane="0"/>

    <connection from="-1042128035#3" to="-1042128035#2" fromLane="0" toLane="0"/>
    <connection from="-1042128035#3" to="83240220" fromLane="0" toLane="0"/>
    <connection from="-1042128035#3" to="1042128035#3" fromLane="0" toLane="0"/>

    <connection from="-1050961119" to="-494890856#0" fromLane="0" toLane="0"/>
    <connection from="-1050961119" to="494890856#1" fromLane="0" toLane="0"/>
    <connection from="-1050961119" to="1050961119" fromLane="0" toLane="0"/>

    <connection from="-105202894#0" to="-244421750#1" fromLane="0" toLane="0"/>
    <connection from="-105202894#0" to="244421750#2" fromLane="0" toLane="0"/>
    <connection from="-105202894#0" to="105202894#0" fromLane="0" toLane="0"/>

    <connection from="-105202894#3" to="-105202894#0" fromLane="0" toLane="0"/>
    <connection from="-105202894#3" to="158807850#1" fromLane="0" toLane="0"/>
    <connection from="-105202894#3" to="105202894#3" fromLane="0" toLane="0"/>

    <connection from="-105202900#0" to="244421746#0" fromLane="0" toLane="0"/>
    <connection from="-105202900#0" to="-663166336#1" fromLane="0" toLane="0"/>
    <connection from="-105202900#0" to="-663166337" fromLane="0" toLane="0"/>
    <connection from="-105202900#0" to="105202900#0" fromLane="0" toLane="0"/>

    <connection from="-105202900#1" to="-105202900#0" fromLane="0" toLane="0"/>
    <connection from="-105202900#1" to="105202900#1" fromLane="0" toLane="0"/>

    <connection from="-105202900#2" to="244421746#3" fromLane="0" toLane="0"/>
    <connection from="-105202900#2" to="243893343#2" fromLane="0" toLane="0"/>
    <connection from="-105202900#2" to="-244421746#2" fromLane="0" toLane="0"/>
    <connection from="-105202900#2" to="-105202900#1" fromLane="0" toLane="0"/>
    <connection from="-105202900#2" to="105202900#2" fromLane="0" toLane="0"/>

    <connection from="-105202900#3" to="-105202900#2" fromLane="0" toLane="0"/>
    <connection from="-105202900#3" to="-371674277" fromLane="0" toLane="0"/>
    <connection from="-105202900#3" to="105202900#3" fromLane="0" toLane="0"/>

    <connection from="-105202900#4" to="-105202900#3" fromLane="0" toLane="0"/>
    <connection from="-105202900#4" to="105202900#4" fromLane="0" toLane="0"/>

    <connection from="-105202900#5" to="-388861600" fromLane="0" toLane="0"/>
    <connection from="-105202900#5" to="-105202900#4" fromLane="0" toLane="0"/>
    <connection from="-105202900#5" to="105202900#5" fromLane="0" toLane="0"/>

    <connection from="-105202902#1" to="241811776#8" fromLane="0" toLane="0"/>
    <connection from="-105202902#1" to="-241811776#5" fromLane="0" toLane="0"/>
    <connection from="-105202902#1" to="105202902#1" fromLane="0" toLane="0"/>

    <connection from="-1054512120#0" to="1054512120#0" fromLane="0" toLane="0"/>

    <connection from="-1054512120#1" to="62080975#3" fromLane="0" toLane="0"/>
    <connection from="-1054512120#1" to="-1054512120#0" fromLane="0" toLane="0"/>
    <connection from="-1054512120#1" to="-62080975#2" fromLane="0" toLane="0"/>
    <connection from="-1054512120#1" to="1054512120#1" fromLane="0" toLane="0"/>

    <connection from="-1054512336" to="203384047#1" fromLane="0" toLane="0"/>
    <connection from="-1054512336" to="1054512336" fromLane="0" toLane="0"/>

    <connection from="-1059586393#0" to="506599429#1" fromLane="0" toLane="0"/>
    <connection from="-1059586393#0" to="-769378425#2" fromLane="0" toLane="0"/>
    <connection from="-1059586393#0" to="313235569#11" fromLane="0" toLane="2"/>
    <connection from="-1059586393#0" to="1059586393#0" fromLane="0" toLane="0"/>

    <connection from="-1059586393#1" to="364650974" fromLane="0" toLane="0"/>
    <connection from="-1059586393#1" to="-1059586393#0" fromLane="0" toLane="0"/>

    <connection from="-1059586393#4" to="-557564466#18" fromLane="0" toLane="0"/>
    <connection from="-1059586393#4" to="-1059586393#1" fromLane="0" toLane="0"/>
    <connection from="-1059586393#4" to="1059586393#4" fromLane="0" toLane="0"/>

    <connection from="-1059586393#5" to="51821772#1" fromLane="0" toLane="0"/>
    <connection from="-1059586393#5" to="-1059586393#4" fromLane="0" toLane="0"/>
    <connection from="-1059586393#5" to="1059586393#5" fromLane="0" toLane="0"/>

    <connection from="-1059586393#6" to="-1059586393#5" fromLane="0" toLane="0"/>

    <connection from="-1059586393#7" to="-1059586393#6" fromLane="0" toLane="0"/>

    <connection from="-1065485437#0" to="173012839#1" fromLane="0" toLane="0"/>
    <connection from="-1065485437#0" to="1065485437#0" fromLane="0" toLane="0"/>

    <connection from="-1065485437#1" to="-1065485437#0" fromLane="0" toLane="0"/>

    <connection from="-1066079249" to="-330466883#4" fromLane="0" toLane="0"/>
    <connection from="-1066079249" to="449379842#0" fromLane="0" toLane="0"/>
    <connection from="-1066079249" to="330466883#6" fromLane="0" toLane="0"/>
    <connection from="-1066079249" to="1066079249" fromLane="0" toLane="0"/>

    <connection from="-1066080863" to="-244421771#1" fromLane="0" toLane="0"/>
    <connection from="-1066080863" to="244421771#2" fromLane="0" toLane="0"/>
    <connection from="-1066080863" to="1066080863" fromLane="0" toLane="0"/>

    <connection from="-1066080864" to="-244421771#2" fromLane="0" toLane="0"/>
    <connection from="-1066080864" to="244421771#3" fromLane="0" toLane="0"/>
    <connection from="-1066080864" to="1066080864" fromLane="0" toLane="0"/>

    <connection from="-1066092244#1" to="-241811776#1" fromLane="0" toLane="0"/>
    <connection from="-1066092244#1" to="-330466888#1" fromLane="0" toLane="0"/>
    <connection from="-1066092244#1" to="241811776#5" fromLane="0" toLane="0"/>
    <connection from="-1066092244#1" to="1066092244#1" fromLane="0" toLane="0"/>

    <connection from="-1067871220#0" to="235473327#1" fromLane="0" toLane="0"/>
    <connection from="-1067871220#0" to="-235473327#0" fromLane="0" toLane="0"/>
    <connection from="-1067871220#0" to="1067871220#0" fromLane="0" toLane="0"/>

    <connection from="-1067871220#1" to="494758434" fromLane="0" toLane="0"/>
    <connection from="-1067871220#1" to="-1067871220#0" fromLane="0" toLane="0"/>
    <connection from="-1067871220#1" to="1067871220#1" fromLane="0" toLane="0"/>

    <connection from="-1067871221" to="235473327#2" fromLane="0" toLane="0"/>
    <connection from="-1067871221" to="-235473327#1" fromLane="0" toLane="0"/>
    <connection from="-1067871221" to="1067871221" fromLane="0" toLane="0"/>

    <connection from="-1067871222" to="235473328#2" fromLane="0" toLane="0"/>
    <connection from="-1067871222" to="-1067871221" fromLane="0" toLane="0"/>
    <connection from="-1067871222" to="-235473328#1" fromLane="0" toLane="0"/>
    <connection from="-1067871222" to="1067871222" fromLane="0" toLane="0"/>

    <connection from="-1067871223" to="235473329#2" fromLane="0" toLane="0"/>
    <connection from="-1067871223" to="-1067871222" fromLane="0" toLane="0"/>
    <connection from="-1067871223" to="-235473329#1" fromLane="0" toLane="0"/>
    <connection from="-1067871223" to="1067871223" fromLane="0" toLane="0"/>

    <connection from="-1067871224" to="235473328#1" fromLane="0" toLane="0"/>
    <connection from="-1067871224" to="-1067871220#1" fromLane="0" toLane="0"/>
    <connection from="-1067871224" to="-235473328#0" fromLane="0" toLane="0"/>
    <connection from="-1067871224" to="1067871224" fromLane="0" toLane="0"/>

    <connection from="-1067871225" to="-1067871223" fromLane="0" toLane="0"/>

    <connection from="-1067871226" to="159119081#4" fromLane="0" toLane="0"/>
    <connection from="-1067871226" to="1067871226" fromLane="0" toLane="0"/>

    <connection from="-1068999024#0" to="-1068999025#4" fromLane="0" toLane="0"/>
    <connection from="-1068999024#0" to="1068999024#0" fromLane="0" toLane="0"/>

    <connection from="-1068999024#1" to="484640335#0" fromLane="0" toLane="0"/>
    <connection from="-1068999024#1" to="-1068999024#0" fromLane="0" toLane="0"/>
    <connection from="-1068999024#1" to="484640337" fromLane="0" toLane="0"/>
    <connection from="-1068999024#1" to="1068999024#1" fromLane="0" toLane="0"/>

    <connection from="-1068999025#0" to="-213092683#6" fromLane="0" toLane="0"/>
    <connection from="-1068999025#0" to="1068999025#0" fromLane="0" toLane="0"/>
