<?xml version="1.0" encoding="UTF-8"?>

<!-- generated on 2024-04-16 14:19:54 by Eclipse SUMO netconvert Version 1.19.0
<configuration xmlns:xsi="http://www.w3.org/2001/XMLSchema-instance" xsi:noNamespaceSchemaLocation="http://sumo.dlr.de/xsd/netconvertConfiguration.xsd">

    <input>
        <sumo-net-file value="new_osm.net.xml"/>
    </input>

    <output>
        <plain-output-prefix value="old"/>
        <output.street-names value="true"/>
    </output>

    <processing>
        <geometry.min-radius.fix.railways value="false"/>
        <geometry.max-grade.fix value="false"/>
        <offset.disable-normalization value="true"/>
        <lefthand value="0"/>
    </processing>

    <junctions>
        <no-turnarounds value="true"/>
        <junctions.corner-detail value="5"/>
        <junctions.limit-turn-speed value="5.50"/>
        <rectangular-lane-cut value="0"/>
    </junctions>

    <pedestrian>
        <walkingareas value="0"/>
    </pedestrian>

</configuration>
-->

<tlLogics version="1.16" xmlns:xsi="http://www.w3.org/2001/XMLSchema-instance" xsi:noNamespaceSchemaLocation="http://sumo.dlr.de/xsd/tllogic_file.xsd">
    <tlLogic id="1142115545" type="actuated" programID="0" offset="0">
        <phase duration="87" state="GggrrrGGg" minDur="5" maxDur="50"/>
        <phase duration="3"  state="yyyrrryyy"/>
        <phase duration="87" state="rrrGGgGrr" minDur="5" maxDur="50"/>
        <phase duration="3"  state="rrryyyyrr"/>
    </tlLogic>
    <tlLogic id="1482316648" type="actuated" programID="0" offset="0">
        <phase duration="87" state="rrrrGGggrrrrGGgg" minDur="5" maxDur="50"/>
        <phase duration="3"  state="rrrryyyyrrrryyyy"/>
        <phase duration="87" state="GGggrrrrGGggrrrr" minDur="5" maxDur="50"/>
        <phase duration="3"  state="yyyyrrrryyyyrrrr"/>
    </tlLogic>
    <tlLogic id="1662464621" type="actuated" programID="0" offset="0">
        <phase duration="54" state="rrrGGGrrr" minDur="13" maxDur="50"/>
        <phase duration="6"  state="rrryyyrrr"/>
        <phase duration="54" state="GGGrrrrrr" minDur="5" maxDur="50"/>
        <phase duration="6"  state="yyyrrrrrr"/>
        <phase duration="54" state="rrrrrrGGG" minDur="5" maxDur="50"/>
        <phase duration="6"  state="rrrrrryyy"/>
    </tlLogic>
    <tlLogic id="1708513985" type="actuated" programID="0" offset="0">
        <phase duration="85" state="GGgGggrrr" minDur="10" maxDur="50"/>
        <phase duration="5"  state="yyyyyyrrr"/>
        <phase duration="85" state="GrrrrrGGg" minDur="5" maxDur="50"/>
        <phase duration="5"  state="yrrrrryyy"/>
    </tlLogic>
    <tlLogic id="1709044638" type="actuated" programID="0" offset="0">
        <phase duration="87" state="rrrrGGggrrrrGGgg" minDur="5" maxDur="50"/>
        <phase duration="3"  state="rrrryyyyrrrryyyy"/>
        <phase duration="87" state="GGggrrrrGGggrrrr" minDur="5" maxDur="50"/>
        <phase duration="3"  state="yyyyrrrryyyyrrrr"/>
    </tlLogic>
    <tlLogic id="1709044670" type="actuated" programID="0" offset="0">
        <phase duration="87" state="GGrr" minDur="5" maxDur="50"/>
        <phase duration="3"  state="yyrr"/>
        <phase duration="87" state="GrGg" minDur="5" maxDur="50"/>
        <phase duration="3"  state="yryy"/>
    </tlLogic>
    <tlLogic id="1709044698" type="actuated" programID="0" offset="0">
        <phase duration="87" state="GGggrrrrGGggrrrr" minDur="5" maxDur="50"/>
        <phase duration="3"  state="yyyyrrrryyyyrrrr"/>
        <phase duration="87" state="rrrrGGggrrrrGGgg" minDur="5" maxDur="50"/>
        <phase duration="3"  state="rrrryyyyrrrryyyy"/>
    </tlLogic>
    <tlLogic id="1710384796" type="actuated" programID="0" offset="0">
        <phase duration="169" state="GG" minDur="13" maxDur="50"/>
        <phase duration="6"  state="yy"/>
        <phase duration="5"  state="rr"/>
    </tlLogic>
    <tlLogic id="1724796257" type="actuated" programID="0" offset="0">
        <phase duration="84" state="GGGrrrrGG" minDur="10" maxDur="50"/>
        <phase duration="6"  state="yyyrrrryy"/>
        <phase duration="84" state="rrrGGGGGG" minDur="13" maxDur="50"/>
        <phase duration="6"  state="rrryyyyyy"/>
    </tlLogic>
    <tlLogic id="1942810683" type="actuated" programID="0" offset="0">
        <phase duration="87" state="rrrrGGggrrrrGGgg" minDur="5" maxDur="50"/>
        <phase duration="3"  state="rrrryyyyrrrryyyy"/>
        <phase duration="87" state="GGggrrrrGGggrrrr" minDur="5" maxDur="50"/>
        <phase duration="3"  state="yyyyrrrryyyyrrrr"/>
    </tlLogic>
    <tlLogic id="1942810701" type="actuated" programID="0" offset="0">
        <phase duration="85" state="GgGrrr" minDur="5" maxDur="50"/>
        <phase duration="5"  state="yyyrrr"/>
        <phase duration="85" state="rrGGGG" minDur="10" maxDur="50"/>
        <phase duration="5"  state="rryyyy"/>
    </tlLogic>
    <tlLogic id="1993433479" type="actuated" programID="0" offset="0">
        <phase duration="87" state="GggrrrGGgrrr" minDur="5" maxDur="50"/>
        <phase duration="3"  state="yyyrrryyyrrr"/>
        <phase duration="87" state="rrrGggrrrGGg" minDur="5" maxDur="50"/>
        <phase duration="3"  state="rrryyyrrryyy"/>
    </tlLogic>
    <tlLogic id="1993433534" type="actuated" programID="0" offset="0">
        <phase duration="87" state="GgGrrr" minDur="5" maxDur="50"/>
        <phase duration="3"  state="yyyrrr"/>
        <phase duration="87" state="rrGGGG" minDur="5" maxDur="50"/>
        <phase duration="3"  state="rryyyy"/>
    </tlLogic>
    <tlLogic id="1993453986" type="actuated" programID="0" offset="0">
        <phase duration="87" state="rrrrGGggrrrrGGgg" minDur="5" maxDur="50"/>
        <phase duration="3"  state="rrrryyyyrrrryyyy"/>
        <phase duration="87" state="GGggrrrrGGggrrrr" minDur="5" maxDur="50"/>
        <phase duration="3"  state="yyyyrrrryyyyrrrr"/>
    </tlLogic>
    <tlLogic id="2077766653" type="actuated" programID="0" offset="0">
        <phase duration="84" state="GgGr" minDur="5" maxDur="50"/>
        <phase duration="6"  state="yyyr"/>
        <phase duration="84" state="rrGG" minDur="13" maxDur="50"/>
        <phase duration="6"  state="rryy"/>
    </tlLogic>
    <tlLogic id="2133950219" type="actuated" programID="0" offset="0">
        <phase duration="84" state="GgGr" minDur="5" maxDur="50"/>
        <phase duration="6"  state="yyyr"/>
        <phase duration="84" state="rrGG" minDur="13" maxDur="50"/>
        <phase duration="6"  state="rryy"/>
    </tlLogic>
    <tlLogic id="2161365594" type="actuated" programID="0" offset="0">
        <phase duration="55" state="GGgggrrrrrrrrrrggGggrrrrr" minDur="10" maxDur="50"/>
        <phase duration="5"  state="yyyyyrrrrrrrrrryyyyyrrrrr"/>
        <phase duration="55" state="rrrrrrrrrrgGgggrrrrrGGggg" minDur="10" maxDur="50"/>
        <phase duration="5"  state="rrrrrrrrrryyyyyrrrrryyyyy"/>
        <phase duration="55" state="rrrrrGGGGgGrrrrrrrrrrrrrr" minDur="5" maxDur="50"/>
        <phase duration="5"  state="rrrrryyyyyyrrrrrrrrrrrrrr"/>
    </tlLogic>
    <tlLogic id="2186676570" type="actuated" programID="0" offset="0">
        <phase duration="84" state="GGrr" minDur="13" maxDur="50"/>
        <phase duration="6"  state="yyrr"/>
        <phase duration="84" state="rrGG" minDur="5" maxDur="50"/>
        <phase duration="6"  state="rryy"/>
    </tlLogic>
    <tlLogic id="2435260145" type="actuated" programID="0" offset="0">
        <phase duration="87" state="GGgrrrrGgg" minDur="5" maxDur="50"/>
        <phase duration="3"  state="yyyrrrryyy"/>
        <phase duration="87" state="rrrGGGGrrr" minDur="5" maxDur="50"/>
        <phase duration="3"  state="rrryyyyrrr"/>
    </tlLogic>
    <tlLogic id="2452355915" type="actuated" programID="0" offset="0">
        <phase duration="84" state="GGrr" minDur="13" maxDur="50"/>
        <phase duration="6"  state="yyrr"/>
        <phase duration="84" state="GrGg" minDur="5" maxDur="50"/>
        <phase duration="6"  state="yryy"/>
    </tlLogic>
    <tlLogic id="2517390854" type="actuated" programID="0" offset="0">
        <phase duration="85" state="rrrrGGggrrrrGGgg" minDur="10" maxDur="50"/>
        <phase duration="5"  state="rrrryyyyrrrryyyy"/>
        <phase duration="85" state="GGggrrrrGGggrrrr" minDur="10" maxDur="50"/>
        <phase duration="5"  state="yyyyrrrryyyyrrrr"/>
    </tlLogic>
    <tlLogic id="2634745941" type="actuated" programID="0" offset="0">
        <phase duration="170" state="GG" minDur="10" maxDur="50"/>
        <phase duration="5"  state="yy"/>
        <phase duration="5"  state="rr"/>
    </tlLogic>
    <tlLogic id="293851136" type="actuated" programID="0" offset="0">
        <phase duration="87" state="GGggrrrrGGggrrrr" minDur="5" maxDur="50"/>
        <phase duration="3"  state="yyyyrrrryyyyrrrr"/>
        <phase duration="87" state="rrrrGGggrrrrGGgg" minDur="5" maxDur="50"/>
        <phase duration="3"  state="rrrryyyyrrrryyyy"/>
    </tlLogic>
    <tlLogic id="293889713" type="actuated" programID="0" offset="0">
        <phase duration="87" state="GggrrrGGg" minDur="5" maxDur="50"/>
        <phase duration="3"  state="yyyrrryyy"/>
        <phase duration="87" state="rrrGGgGrr" minDur="5" maxDur="50"/>
        <phase duration="3"  state="rrryyyyrr"/>
    </tlLogic>
    <tlLogic id="293890422" type="actuated" programID="0" offset="0">
        <phase duration="55" state="rrrrrrrrrrGGGggrrrrrGGggg" minDur="10" maxDur="50"/>
        <phase duration="5"  state="rrrrrrrrrryyyyyrrrrryyyyy"/>
        <phase duration="55" state="GGgggrrrrrrrrrrGGGggrrrrr" minDur="5" maxDur="50"/>
        <phase duration="5"  state="yyyyyrrrrrrrrrryyyyyrrrrr"/>
        <phase duration="55" state="rrrrrGGGGgGrrrrrrrrrrrrrr" minDur="5" maxDur="50"/>
        <phase duration="5"  state="rrrrryyyyyyrrrrrrrrrrrrrr"/>
    </tlLogic>
    <tlLogic id="293929733" type="actuated" programID="0" offset="0">
        <phase duration="85" state="GGggrrrrGGggrrrr" minDur="10" maxDur="50"/>
        <phase duration="5"  state="yyyyrrrryyyyrrrr"/>
        <phase duration="85" state="rrrrGGggrrrrGGgg" minDur="5" maxDur="50"/>
        <phase duration="5"  state="rrrryyyyrrrryyyy"/>
    </tlLogic>
    <tlLogic id="307656391" type="actuated" programID="0" offset="0">
        <phase duration="85" state="rrrGGgGgg" minDur="10" maxDur="50"/>
        <phase duration="5"  state="rrryyyyyy"/>
        <phase duration="85" state="GGgGrrrrr" minDur="10" maxDur="50"/>
        <phase duration="5"  state="yyyyrrrrr"/>
    </tlLogic>
    <tlLogic id="3106536682" type="actuated" programID="0" offset="0">
        <phase duration="84" state="GgGr" minDur="5" maxDur="50"/>
        <phase duration="6"  state="yyyr"/>
        <phase duration="84" state="rrGG" minDur="13" maxDur="50"/>
        <phase duration="6"  state="rryy"/>
    </tlLogic>
    <tlLogic id="313702728" type="actuated" programID="0" offset="0">
        <phase duration="84" state="Gr" minDur="13" maxDur="50"/>
        <phase duration="6"  state="yr"/>
        <phase duration="84" state="rG" minDur="13" maxDur="50"/>
        <phase duration="6"  state="ry"/>
    </tlLogic>
    <tlLogic id="313702785" type="actuated" programID="0" offset="0">
        <phase duration="84" state="Gr" minDur="13" maxDur="50"/>
        <phase duration="6"  state="yr"/>
        <phase duration="84" state="rG" minDur="13" maxDur="50"/>
        <phase duration="6"  state="ry"/>
    </tlLogic>
    <tlLogic id="313702859" type="actuated" programID="0" offset="0">
        <phase duration="84" state="Gr" minDur="13" maxDur="50"/>
        <phase duration="6"  state="yr"/>
        <phase duration="84" state="rG" minDur="13" maxDur="50"/>
        <phase duration="6"  state="ry"/>
    </tlLogic>
    <tlLogic id="3186062584" type="actuated" programID="0" offset="0">
        <phase duration="55" state="GGgGrrrrrrrr" minDur="5" maxDur="50"/>
        <phase duration="5"  state="yyyyrrrrrrrr"/>
        <phase duration="55" state="rrrGGGGGGrrr" minDur="10" maxDur="50"/>
        <phase duration="5"  state="rrryyyyyyrrr"/>
        <phase duration="55" state="rrrrrrrrrGGG" minDur="5" maxDur="50"/>
        <phase duration="5"  state="rrrrrrrrryyy"/>
    </tlLogic>
    <tlLogic id="3232536763" type="actuated" programID="0" offset="0">
        <phase duration="84" state="GgGrrr" minDur="5" maxDur="50"/>
        <phase duration="6"  state="yyyrrr"/>
        <phase duration="84" state="rrGGGG" minDur="13" maxDur="50"/>
        <phase duration="6"  state="rryyyy"/>
    </tlLogic>
    <tlLogic id="3473414680" type="actuated" programID="0" offset="0">
        <phase duration="87" state="rrrrGGggrrrrGGgg" minDur="5" maxDur="50"/>
        <phase duration="3"  state="rrrryyyyrrrryyyy"/>
        <phase duration="87" state="GGggrrrrGGggrrrr" minDur="5" maxDur="50"/>
        <phase duration="3"  state="yyyyrrrryyyyrrrr"/>
    </tlLogic>
    <tlLogic id="3727152539" type="actuated" programID="0" offset="0">
        <phase duration="87" state="GGGgrrr" minDur="5" maxDur="50"/>
        <phase duration="3"  state="yyyyrrr"/>
        <phase duration="87" state="GrrrGGg" minDur="5" maxDur="50"/>
        <phase duration="3"  state="yrrryyy"/>
    </tlLogic>
    <tlLogic id="3777090729" type="actuated" programID="0" offset="0">
        <phase duration="172" state="GGG" minDur="5" maxDur="50"/>
        <phase duration="3"  state="yyy"/>
        <phase duration="5"  state="rrr"/>
    </tlLogic>
    <tlLogic id="3981622775" type="actuated" programID="0" offset="0">
        <phase duration="85" state="GGrr" minDur="10" maxDur="50"/>
        <phase duration="5"  state="yyrr"/>
        <phase duration="85" state="rrGG" minDur="5" maxDur="50"/>
        <phase duration="5"  state="rryy"/>
    </tlLogic>
    <tlLogic id="4311557263" type="actuated" programID="0" offset="0">
        <phase duration="169" state="G" minDur="13" maxDur="50"/>
        <phase duration="6"  state="y"/>
        <phase duration="5"  state="r"/>
    </tlLogic>
    <tlLogic id="4397486757" type="actuated" programID="0" offset="0">
        <phase duration="84" state="GgGrrr" minDur="5" maxDur="50"/>
        <phase duration="6"  state="yyyrrr"/>
        <phase duration="84" state="rrGGGG" minDur="13" maxDur="50"/>
        <phase duration="6"  state="rryyyy"/>
    </tlLogic>
    <tlLogic id="442790073#3-AddedOnRampNode" type="static" programID="0" offset="0">
        <phase duration="79" state="G"/>
        <phase duration="6"  state="y"/>
        <phase duration="5"  state="r"/>
    </tlLogic>
    <tlLogic id="4463430837" type="static" programID="0" offset="0">
        <phase duration="79" state="GGGGG"/>
        <phase duration="6"  state="yyyyy"/>
        <phase duration="5"  state="rrrrr"/>
    </tlLogic>
    <tlLogic id="5064891664" type="actuated" programID="0" offset="0">
        <phase duration="169" state="GG" minDur="13" maxDur="50"/>
        <phase duration="6"  state="yy"/>
        <phase duration="5"  state="rr"/>
    </tlLogic>
    <tlLogic id="5064891665" type="actuated" programID="0" offset="0">
        <phase duration="169" state="GGG" minDur="13" maxDur="50"/>
        <phase duration="6"  state="yyy"/>
        <phase duration="5"  state="rrr"/>
    </tlLogic>
    <tlLogic id="5333152914" type="actuated" programID="0" offset="0">
        <phase duration="87" state="GGggrrrrGGggrrrr" minDur="5" maxDur="50"/>
        <phase duration="3"  state="yyyyrrrryyyyrrrr"/>
        <phase duration="87" state="rrrrGGggrrrrGGgg" minDur="5" maxDur="50"/>
        <phase duration="3"  state="rrrryyyyrrrryyyy"/>
    </tlLogic>
    <tlLogic id="5940747024" type="actuated" programID="0" offset="0">
        <phase duration="169" state="GGG" minDur="13" maxDur="50"/>
        <phase duration="6"  state="yyy"/>
        <phase duration="5"  state="rrr"/>
    </tlLogic>
    <tlLogic id="6069803227" type="actuated" programID="0" offset="0">
        <phase duration="172" state="GgGg" minDur="5" maxDur="50"/>
        <phase duration="3"  state="yyyy"/>
        <phase duration="5"  state="rrrr"/>
    </tlLogic>
    <tlLogic id="632564959" type="actuated" programID="0" offset="0">
        <phase duration="87" state="rrrGggGGg" minDur="5" maxDur="50"/>
        <phase duration="3"  state="rrryyyyyy"/>
        <phase duration="87" state="GGGrrrrrr" minDur="5" maxDur="50"/>
        <phase duration="3"  state="yyyrrrrrr"/>
    </tlLogic>
    <tlLogic id="632565221" type="actuated" programID="0" offset="0">
        <phase duration="169" state="GGGGG" minDur="13" maxDur="50"/>
        <phase duration="6"  state="yyyyy"/>
        <phase duration="5"  state="rrrrr"/>
    </tlLogic>
    <tlLogic id="637639226" type="actuated" programID="0" offset="0">
        <phase duration="87" state="GGgrrrGgg" minDur="5" maxDur="50"/>
        <phase duration="3"  state="yyyrrryyy"/>
        <phase duration="87" state="rrrGGGrrr" minDur="5" maxDur="50"/>
        <phase duration="3"  state="rrryyyrrr"/>
    </tlLogic>
    <tlLogic id="637640224" type="actuated" programID="0" offset="0">
        <phase duration="85" state="GGGrrrrr" minDur="5" maxDur="50"/>
        <phase duration="5"  state="yyyrrrrr"/>
        <phase duration="85" state="rrrGGGGG" minDur="10" maxDur="50"/>
        <phase duration="5"  state="rrryyyyy"/>
    </tlLogic>
    <tlLogic id="649219428" type="actuated" programID="0" offset="0">
        <phase duration="87" state="Gr" minDur="5" maxDur="50"/>
        <phase duration="3"  state="yr"/>
        <phase duration="87" state="rG" minDur="5" maxDur="50"/>
        <phase duration="3"  state="ry"/>
    </tlLogic>
    <tlLogic id="649219850" type="actuated" programID="0" offset="0">
        <phase duration="85" state="GGrrrr" minDur="5" maxDur="50"/>
        <phase duration="5"  state="yyrrrr"/>
        <phase duration="85" state="rrGGGG" minDur="10" maxDur="50"/>
        <phase duration="5"  state="rryyyy"/>
    </tlLogic>
    <tlLogic id="654154581" type="actuated" programID="0" offset="0">
        <phase duration="85" state="Gr" minDur="10" maxDur="50"/>
        <phase duration="5"  state="yr"/>
        <phase duration="85" state="rG" minDur="5" maxDur="50"/>
        <phase duration="5"  state="ry"/>
    </tlLogic>
    <tlLogic id="654154582" type="actuated" programID="0" offset="0">
        <phase duration="85" state="GgGr" minDur="5" maxDur="50"/>
        <phase duration="5"  state="yyyr"/>
        <phase duration="85" state="rrGG" minDur="10" maxDur="50"/>
        <phase duration="5"  state="rryy"/>
    </tlLogic>
    <tlLogic id="654154683" type="actuated" programID="0" offset="0">
        <phase duration="87" state="GGrr" minDur="5" maxDur="50"/>
        <phase duration="3"  state="yyrr"/>
        <phase duration="87" state="GrGG" minDur="5" maxDur="50"/>
        <phase duration="3"  state="yryy"/>
    </tlLogic>
    <tlLogic id="654154684" type="actuated" programID="0" offset="0">
        <phase duration="87" state="GGrr" minDur="5" maxDur="50"/>
        <phase duration="3"  state="yyrr"/>
        <phase duration="87" state="rrGG" minDur="5" maxDur="50"/>
        <phase duration="3"  state="rryy"/>
    </tlLogic>
    <tlLogic id="654186266" type="actuated" programID="0" offset="0">
        <phase duration="87" state="rrrGGgGgg" minDur="5" maxDur="50"/>
        <phase duration="3"  state="rrryyyyyy"/>
        <phase duration="87" state="GGgGrrrrr" minDur="5" maxDur="50"/>
        <phase duration="3"  state="yyyyrrrrr"/>
    </tlLogic>
    <tlLogic id="655316502" type="actuated" programID="0" offset="0">
        <phase duration="87" state="rrrGGgGgg" minDur="5" maxDur="50"/>
        <phase duration="3"  state="rrryyyyyy"/>
        <phase duration="87" state="GGgGrrrrr" minDur="5" maxDur="50"/>
        <phase duration="3"  state="yyyyrrrrr"/>
    </tlLogic>
    <tlLogic id="655316562" type="actuated" programID="0" offset="0">
        <phase duration="87" state="GGgrrrrGGgrrrr" minDur="5" maxDur="50"/>
        <phase duration="3"  state="yyyrrrryyyrrrr"/>
        <phase duration="87" state="rrrGGggrrrGGgg" minDur="5" maxDur="50"/>
        <phase duration="3"  state="rrryyyyrrryyyy"/>
    </tlLogic>
    <tlLogic id="655316597" type="actuated" programID="0" offset="0">
        <phase duration="85" state="Gr" minDur="5" maxDur="50"/>
        <phase duration="5"  state="yr"/>
        <phase duration="85" state="rG" minDur="10" maxDur="50"/>
        <phase duration="5"  state="ry"/>
    </tlLogic>
    <tlLogic id="655316630" type="actuated" programID="0" offset="0">
        <phase duration="87" state="rrrrGGggGGgg" minDur="5" maxDur="50"/>
        <phase duration="3"  state="rrrryyyyyyyy"/>
        <phase duration="87" state="GGGgGrrrrrrr" minDur="5" maxDur="50"/>
        <phase duration="3"  state="yyyyyrrrrrrr"/>
    </tlLogic>
    <tlLogic id="656401363" type="actuated" programID="0" offset="0">
        <phase duration="85" state="GgGr" minDur="5" maxDur="50"/>
        <phase duration="5"  state="yyyr"/>
        <phase duration="85" state="rrGG" minDur="10" maxDur="50"/>
        <phase duration="5"  state="rryy"/>
    </tlLogic>
    <tlLogic id="661021431" type="actuated" programID="0" offset="0">
        <phase duration="87" state="GgrrGg" minDur="5" maxDur="50"/>
        <phase duration="3"  state="yyrryy"/>
        <phase duration="87" state="rrGGrr" minDur="5" maxDur="50"/>
        <phase duration="3"  state="rryyrr"/>
    </tlLogic>
    <tlLogic id="661021433" type="actuated" programID="0" offset="0">
        <phase duration="172" state="GggGGg" minDur="5" maxDur="50"/>
        <phase duration="3"  state="yyyyyy"/>
        <phase duration="5"  state="rrrrrr"/>
    </tlLogic>
    <tlLogic id="661095240" type="actuated" programID="0" offset="0">
        <phase duration="87" state="GgGGrrr" minDur="5" maxDur="50"/>
        <phase duration="3"  state="yyyyrrr"/>
        <phase duration="87" state="rrrrGGG" minDur="5" maxDur="50"/>
        <phase duration="3"  state="rrrryyy"/>
    </tlLogic>
    <tlLogic id="661095314" type="actuated" programID="0" offset="0">
        <phase duration="87" state="rrrrGGgrrrrGGg" minDur="5" maxDur="50"/>
        <phase duration="3"  state="rrrryyyrrrryyy"/>
        <phase duration="87" state="GGggrrrGGggrrr" minDur="5" maxDur="50"/>
        <phase duration="3"  state="yyyyrrryyyyrrr"/>
    </tlLogic>
    <tlLogic id="670589378" type="actuated" programID="0" offset="0">
        <phase duration="87" state="GGrr" minDur="5" maxDur="50"/>
        <phase duration="3"  state="yyrr"/>
        <phase duration="87" state="GrGg" minDur="5" maxDur="50"/>
        <phase duration="3"  state="yryy"/>
    </tlLogic>
    <tlLogic id="7004318919" type="actuated" programID="0" offset="0">
        <phase duration="169" state="G" minDur="13" maxDur="50"/>
        <phase duration="6"  state="y"/>
        <phase duration="5"  state="r"/>
    </tlLogic>
    <tlLogic id="7004318920" type="actuated" programID="0" offset="0">
        <phase duration="169" state="G" minDur="13" maxDur="50"/>
        <phase duration="6"  state="y"/>
        <phase duration="5"  state="r"/>
    </tlLogic>
    <tlLogic id="7700132960" type="actuated" programID="0" offset="0">
        <phase duration="172" state="GGG" minDur="5" maxDur="50"/>
        <phase duration="3"  state="yyy"/>
        <phase duration="5"  state="rrr"/>
    </tlLogic>
    <tlLogic id="7722099415" type="actuated" programID="0" offset="0">
        <phase duration="172" state="G" minDur="5" maxDur="50"/>
        <phase duration="3"  state="y"/>
        <phase duration="5"  state="r"/>
    </tlLogic>
    <tlLogic id="7722099431" type="actuated" programID="0" offset="0">
        <phase duration="170" state="GG" minDur="10" maxDur="50"/>
        <phase duration="5"  state="yy"/>
        <phase duration="5"  state="rr"/>
    </tlLogic>
    <tlLogic id="7722099452" type="actuated" programID="0" offset="0">
        <phase duration="170" state="G" minDur="10" maxDur="50"/>
        <phase duration="5"  state="y"/>
        <phase duration="5"  state="r"/>
    </tlLogic>
    <tlLogic id="7722099454" type="actuated" programID="0" offset="0">
        <phase duration="170" state="G" minDur="10" maxDur="50"/>
        <phase duration="5"  state="y"/>
        <phase duration="5"  state="r"/>
    </tlLogic>
    <tlLogic id="7722099654" type="actuated" programID="0" offset="0">
        <phase duration="170" state="GG" minDur="8" maxDur="50"/>
        <phase duration="5"  state="yy"/>
        <phase duration="5"  state="rr"/>
    </tlLogic>
    <tlLogic id="7722099667" type="actuated" programID="0" offset="0">
        <phase duration="170" state="GGG" minDur="10" maxDur="50"/>
        <phase duration="5"  state="yyy"/>
        <phase duration="5"  state="rrr"/>
    </tlLogic>
    <tlLogic id="7723489328" type="actuated" programID="0" offset="0">
        <phase duration="172" state="G" minDur="5" maxDur="50"/>
        <phase duration="3"  state="y"/>
        <phase duration="5"  state="r"/>
    </tlLogic>
    <tlLogic id="7723489329" type="actuated" programID="0" offset="0">
        <phase duration="172" state="G" minDur="5" maxDur="50"/>
        <phase duration="3"  state="y"/>
        <phase duration="5"  state="r"/>
    </tlLogic>
    <tlLogic id="7723490071" type="actuated" programID="0" offset="0">
        <phase duration="170" state="G" minDur="10" maxDur="50"/>
        <phase duration="5"  state="y"/>
        <phase duration="5"  state="r"/>
    </tlLogic>
    <tlLogic id="7723490073" type="actuated" programID="0" offset="0">
        <phase duration="170" state="G" minDur="10" maxDur="50"/>
        <phase duration="5"  state="y"/>
        <phase duration="5"  state="r"/>
    </tlLogic>
    <tlLogic id="7723490082" type="actuated" programID="0" offset="0">
        <phase duration="170" state="GG" minDur="10" maxDur="50"/>
        <phase duration="5"  state="yy"/>
        <phase duration="5"  state="rr"/>
    </tlLogic>
    <tlLogic id="7723490463" type="actuated" programID="0" offset="0">
        <phase duration="172" state="G" minDur="5" maxDur="50"/>
        <phase duration="3"  state="y"/>
        <phase duration="5"  state="r"/>
    </tlLogic>
    <tlLogic id="7723490809" type="actuated" programID="0" offset="0">
        <phase duration="169" state="GG" minDur="13" maxDur="50"/>
        <phase duration="6"  state="yy"/>
        <phase duration="5"  state="rr"/>
    </tlLogic>
    <tlLogic id="7723514161" type="actuated" programID="0" offset="0">
        <phase duration="169" state="GGG" minDur="13" maxDur="50"/>
        <phase duration="6"  state="yyy"/>
        <phase duration="5"  state="rrr"/>
    </tlLogic>
    <tlLogic id="773904433" type="actuated" programID="0" offset="0">
        <phase duration="87" state="GggrrrGGg" minDur="5" maxDur="50"/>
        <phase duration="3"  state="yyyrrryyy"/>
        <phase duration="87" state="rrrGGgGrr" minDur="5" maxDur="50"/>
        <phase duration="3"  state="rrryyyyrr"/>
    </tlLogic>
    <tlLogic id="773904494" type="actuated" programID="0" offset="0">
        <phase duration="85" state="GGggGGggrrrr" minDur="10" maxDur="50"/>
        <phase duration="5"  state="yyyyyyyyrrrr"/>
        <phase duration="85" state="GrrrrrrrGGGg" minDur="5" maxDur="50"/>
        <phase duration="5"  state="yrrrrrrryyyy"/>
    </tlLogic>
    <tlLogic id="860226222" type="actuated" programID="0" offset="0">
        <phase duration="87" state="rrrrGGggrrrrGGgg" minDur="5" maxDur="50"/>
        <phase duration="3"  state="rrrryyyyrrrryyyy"/>
        <phase duration="87" state="GGggrrrrGGggrrrr" minDur="5" maxDur="50"/>
        <phase duration="3"  state="yyyyrrrryyyyrrrr"/>
    </tlLogic>
    <tlLogic id="868703428" type="actuated" programID="0" offset="0">
        <phase duration="172" state="GG" minDur="5" maxDur="50"/>
        <phase duration="3"  state="yy"/>
        <phase duration="5"  state="rr"/>
    </tlLogic>
    <tlLogic id="870417402" type="actuated" programID="0" offset="0">
        <phase duration="87" state="GGggrrrrGGggrrrr" minDur="5" maxDur="50"/>
        <phase duration="3"  state="yyyyrrrryyyyrrrr"/>
        <phase duration="87" state="rrrrGGggrrrrGGgg" minDur="5" maxDur="50"/>
        <phase duration="3"  state="rrrryyyyrrrryyyy"/>
    </tlLogic>
    <tlLogic id="873134710" type="actuated" programID="0" offset="0">
        <phase duration="84" state="GGGrr" minDur="13" maxDur="50"/>
        <phase duration="6"  state="yyyrr"/>
        <phase duration="84" state="GrrGg" minDur="5" maxDur="50"/>
        <phase duration="6"  state="yrryy"/>
    </tlLogic>
    <tlLogic id="886322380" type="actuated" programID="0" offset="0">
        <phase duration="87" state="GggrrrGGg" minDur="5" maxDur="50"/>
        <phase duration="3"  state="yyyrrryyy"/>
        <phase duration="87" state="rrrGGgGrr" minDur="5" maxDur="50"/>
        <phase duration="3"  state="rrryyyyrr"/>
    </tlLogic>
    <tlLogic id="888727827" type="actuated" programID="0" offset="0">
        <phase duration="87" state="GGggrrrGGg" minDur="5" maxDur="50"/>
        <phase duration="3"  state="yyyyrrryyy"/>
        <phase duration="87" state="rrrrGGgGrr" minDur="5" maxDur="50"/>
        <phase duration="3"  state="rrrryyyyrr"/>
    </tlLogic>
    <tlLogic id="888727830" type="actuated" programID="0" offset="0">
        <phase duration="87" state="GGggrrrGGGg" minDur="5" maxDur="50"/>
        <phase duration="3"  state="yyyyrrryyyy"/>
        <phase duration="87" state="rrrrGGgGrrr" minDur="5" maxDur="50"/>
        <phase duration="3"  state="rrrryyyyrrr"/>
    </tlLogic>
    <tlLogic id="895223897" type="actuated" programID="0" offset="0">
        <phase duration="87" state="GggrrrGGg" minDur="5" maxDur="50"/>
        <phase duration="3"  state="yyyrrryyy"/>
        <phase duration="87" state="rrrGGgGrr" minDur="5" maxDur="50"/>
        <phase duration="3"  state="rrryyyyrr"/>
    </tlLogic>
    <tlLogic id="895345286" type="actuated" programID="0" offset="0">
        <phase duration="57" state="rrG" minDur="5" maxDur="50"/>
        <phase duration="3"  state="rry"/>