<?xml version="1.0" encoding="UTF-8"?>

<!-- generated on 2024-04-16 14:19:53 by Eclipse SUMO netconvert Version 1.19.0
<configuration xmlns:xsi="http://www.w3.org/2001/XMLSchema-instance" xsi:noNamespaceSchemaLocation="http://sumo.dlr.de/xsd/netconvertConfiguration.xsd">

    <input>
        <sumo-net-file value="new_osm.net.xml"/>
    </input>

    <output>
        <plain-output-prefix value="old"/>
        <output.street-names value="true"/>
    </output>

    <processing>
        <geometry.min-radius.fix.railways value="false"/>
        <geometry.max-grade.fix value="false"/>
        <offset.disable-normalization value="true"/>
        <lefthand value="0"/>
    </processing>

    <junctions>
        <no-turnarounds value="true"/>
        <junctions.corner-detail value="5"/>
        <junctions.limit-turn-speed value="5.50"/>
        <rectangular-lane-cut value="0"/>
    </junctions>

    <pedestrian>
        <walkingareas value="0"/>
    </pedestrian>

</configuration>
-->

<nodes version="1.16" xmlns:xsi="http://www.w3.org/2001/XMLSchema-instance" xsi:noNamespaceSchemaLocation="http://sumo.dlr.de/xsd/nodes_file.xsd">
    <location netOffset="-350711.53,-2770638.71" convBoundary="0.00,0.00,9994.53,5641.65" origBoundary="121.461465,25.044352,121.787370,25.115066" projParameter="+proj=utm +zone=51 +ellps=WGS84 +datum=WGS84 +units=m +no_defs"/>

    <node id="10020544501" x="3579.08" y="4620.62" type="priority"/>
    <node id="10043927969" x="7157.10" y="1224.09" type="priority"/>
    <node id="10043927971" x="7210.50" y="1113.40" type="priority"/>
    <node id="10113311360" x="8939.90" y="1048.97" type="dead_end"/>
    <node id="10113311362" x="8584.32" y="976.25" type="dead_end"/>
    <node id="10113311364" x="8547.77" y="984.82" type="dead_end"/>
    <node id="10113311365" x="8581.41" y="992.03" type="dead_end"/>
    <node id="10113311366" x="8465.61" y="968.48" type="dead_end"/>
    <node id="10113311367" x="8517.46" y="978.79" type="dead_end"/>
    <node id="10113311368" x="8513.50" y="1000.92" type="dead_end"/>
    <node id="10117740569" x="7125.41" y="4509.34" type="dead_end"/>
    <node id="10117806659" x="7284.45" y="4590.18" type="priority"/>
    <node id="10117806662" x="7278.52" y="4603.41" type="priority"/>
    <node id="10117833021" x="7640.22" y="4352.70" type="dead_end"/>
    <node id="10117833024" x="7616.91" y="4375.93" type="priority"/>
    <node id="10117833028" x="7616.22" y="4337.92" type="dead_end"/>
    <node id="10150939404" x="7635.45" y="1493.03" type="dead_end"/>
    <node id="10150939405" x="7661.89" y="1391.65" type="dead_end"/>
    <node id="10150939408" x="7533.56" y="1336.50" type="priority"/>
    <node id="10150957718" x="7450.30" y="1502.82" type="priority"/>
    <node id="10150957724" x="7967.74" y="1989.80" type="priority"/>
    <node id="10159543910" x="3482.12" y="2029.06" type="priority"/>
    <node id="10159543911" x="3493.26" y="2019.07" type="priority"/>
    <node id="10159543915" x="3387.88" y="2027.07" type="priority"/>
    <node id="10175080814" x="2422.68" y="1525.06" type="priority"/>
    <node id="10197419985" x="9153.28" y="1741.19" type="dead_end"/>
    <node id="10197420000" x="9108.85" y="1705.41" type="dead_end"/>
    <node id="10197420001" x="9085.26" y="1688.43" type="dead_end"/>
    <node id="10197420002" x="9086.72" y="1701.50" type="priority"/>
    <node id="10197420003" x="9091.85" y="1693.33" type="priority"/>
    <node id="10197420004" x="9100.24" y="1673.86" type="priority"/>
    <node id="10232577908" x="3687.49" y="3530.20" type="dead_end"/>
    <node id="10232577911" x="3687.29" y="3549.02" type="right_before_left"/>
    <node id="10232577912" x="3720.50" y="3550.52" type="dead_end"/>
    <node id="10232577914" x="3988.52" y="3434.65" type="right_before_left"/>
    <node id="10232801712" x="5358.46" y="2585.83" type="right_before_left"/>
    <node id="10232801713" x="5358.45" y="2581.77" type="dead_end"/>
    <node id="10232801714" x="5288.10" y="2549.20" type="dead_end"/>
    <node id="10232801715" x="5284.09" y="2537.38" type="dead_end"/>
    <node id="10232801716" x="5282.03" y="2538.07" type="dead_end"/>
    <node id="10232831517" x="5286.15" y="2550.22" type="dead_end"/>
    <node id="10258914197" x="4661.01" y="1951.62" type="priority"/>
    <node id="10258914199" x="4644.05" y="2015.72" type="priority"/>
    <node id="10258914200" x="4862.80" y="2312.55" type="priority"/>
    <node id="10258914201" x="4865.96" y="2324.64" type="priority"/>
    <node id="10258914202" x="4864.35" y="1638.23" type="dead_end"/>
    <node id="10258914203" x="4943.82" y="1522.07" type="priority"/>
    <node id="10258914204" x="4770.17" y="1217.78" type="priority"/>
    <node id="10258914205" x="4771.73" y="1153.43" type="priority"/>
    <node id="10261529692" x="7362.36" y="4424.40" type="priority"/>
    <node id="10296248258" x="3674.53" y="1035.32" type="dead_end"/>
    <node id="10316083484" x="2670.10" y="975.13" type="dead_end"/>
    <node id="10316083495" x="2625.94" y="992.50" type="priority"/>
    <node id="1051324103" x="7920.94" y="3233.63" type="right_before_left"/>
    <node id="1051324111" x="7922.69" y="3164.54" type="right_before_left"/>
    <node id="1051324122" x="7922.04" y="3195.32" type="right_before_left"/>
    <node id="1051324132" x="8117.65" y="3193.07" type="right_before_left"/>
    <node id="1051324152" x="8162.99" y="3222.62" type="right_before_left"/>
    <node id="1051324167" x="8160.48" y="3254.13" type="right_before_left"/>
    <node id="1051324183" x="8227.46" y="3246.06" type="right_before_left"/>
    <node id="1051324222" x="8385.00" y="3173.76" type="traffic_light" tl="joinedS_1051324222_2515870578_7723489938_7723489939_#3more" tlType="actuated" controlledInner="-90590336#17 221195129#32 221195129#33 221195129#34 311576793#7 311576793#8 311576793#9 90590336#17"/>
    <node id="1051324279" x="7925.79" y="3082.34" type="right_before_left"/>
    <node id="10569219609" x="6091.01" y="1010.60" type="right_before_left"/>
    <node id="10569219612" x="6148.47" y="1024.21" type="dead_end"/>
    <node id="10657307583" x="7224.29" y="4429.50" type="dead_end"/>
    <node id="10657307584" x="7189.04" y="4430.75" type="dead_end"/>
    <node id="10687408614" x="3915.23" y="4066.95" type="priority"/>
    <node id="10687408615" x="3834.12" y="4069.61" type="dead_end"/>
    <node id="10687408618" x="3982.07" y="4056.45" type="dead_end"/>
    <node id="10687408619" x="3981.72" y="4016.49" type="dead_end"/>
    <node id="10687408620" x="3983.23" y="4108.21" type="dead_end"/>
    <node id="10687408621" x="3833.22" y="4020.76" type="dead_end"/>
    <node id="10687408622" x="3834.44" y="4083.91" type="dead_end"/>
    <node id="10687408625" x="3676.05" y="4156.05" type="dead_end"/>
    <node id="10691225292" x="3740.93" y="3892.49" type="dead_end"/>
    <node id="10691225293" x="3740.21" y="3858.63" type="dead_end"/>
    <node id="10691225294" x="4017.52" y="3764.73" type="dead_end"/>
    <node id="10691225296" x="3816.47" y="4160.95" type="priority"/>
    <node id="10691225300" x="3683.39" y="4377.28" type="dead_end"/>
    <node id="10691225302" x="3603.73" y="4462.61" type="dead_end"/>
    <node id="10691226005" x="3910.43" y="4457.74" type="dead_end"/>
    <node id="10691226008" x="3894.34" y="4488.27" type="dead_end"/>
    <node id="10691226009" x="3931.35" y="4505.56" type="right_before_left"/>
    <node id="10691226013" x="3996.25" y="4507.99" type="priority"/>
    <node id="10691226014" x="4007.31" y="4506.23" type="priority"/>
    <node id="10691226021" x="3826.77" y="4459.40" type="priority"/>
    <node id="10691226022" x="3814.36" y="4458.36" type="priority"/>
    <node id="10691226027" x="3709.74" y="4470.96" type="priority"/>
    <node id="10691226034" x="3861.22" y="4471.87" type="priority"/>
    <node id="10691226035" x="4074.40" y="3763.71" type="dead_end"/>
    <node id="10691226036" x="4021.18" y="3764.70" type="priority"/>
    <node id="10691226037" x="4002.13" y="4507.05" type="priority"/>
    <node id="10718342795" x="9292.57" y="1250.34" type="dead_end"/>
    <node id="10718342797" x="9289.14" y="1273.79" type="dead_end"/>
    <node id="10830139439" x="8826.29" y="851.53" type="dead_end"/>
    <node id="10830139454" x="8444.89" y="794.57" type="right_before_left"/>
    <node id="10830146736" x="8809.16" y="969.73" type="dead_end"/>
    <node id="10860273902" x="6148.41" y="3689.29" type="priority"/>
    <node id="10860273903" x="6152.74" y="3741.95" type="dead_end"/>
    <node id="10860308713" x="6382.01" y="3648.49" type="priority"/>
    <node id="10863994967" x="8487.09" y="1529.25" type="priority"/>
    <node id="10863994969" x="7465.19" y="1494.67" type="priority"/>
    <node id="10870576766" x="6146.96" y="3741.91" type="priority"/>
    <node id="10870576770" x="6121.16" y="3715.91" type="priority"/>
    <node id="10870576771" x="6152.82" y="3731.03" type="dead_end"/>
    <node id="10870576773" x="6033.55" y="3705.93" type="priority"/>
    <node id="10870576774" x="6043.82" y="3704.81" type="dead_end"/>
    <node id="10870576775" x="6045.91" y="3690.18" type="dead_end"/>
    <node id="10870576776" x="6038.10" y="3687.62" type="priority"/>
    <node id="10870576777" x="6124.33" y="3689.03" type="dead_end"/>
    <node id="10870576779" x="6138.26" y="3706.52" type="dead_end"/>
    <node id="10870576784" x="6099.96" y="3704.27" type="dead_end"/>
    <node id="10870576787" x="6123.75" y="3700.43" type="dead_end"/>
    <node id="10870576789" x="6096.67" y="3689.10" type="dead_end"/>
    <node id="10870576792" x="6167.31" y="3741.95" type="dead_end"/>
    <node id="10870576796" x="6051.53" y="3705.40" type="priority"/>
    <node id="10870576797" x="6052.74" y="3741.26" type="priority"/>
    <node id="10870679705" x="5938.48" y="3690.73" type="dead_end"/>
    <node id="10870679706" x="6025.02" y="3702.58" type="dead_end"/>
    <node id="10870679711" x="6013.38" y="3615.88" type="priority"/>
    <node id="10870679712" x="6032.19" y="3669.65" type="dead_end"/>
    <node id="10870679715" x="6029.32" y="3690.86" type="dead_end"/>
    <node id="10870679716" x="6007.63" y="3681.63" type="dead_end"/>
    <node id="10870679727" x="5948.89" y="3591.62" type="dead_end"/>
    <node id="10870679728" x="5935.45" y="3602.61" type="priority"/>
    <node id="10870679732" x="5963.78" y="3677.44" type="dead_end"/>
    <node id="10870679735" x="5967.48" y="3697.02" type="dead_end"/>
    <node id="10870679736" x="5983.40" y="3622.72" type="dead_end"/>
    <node id="10870679738" x="5921.31" y="3584.61" type="dead_end"/>
    <node id="10870679740" x="5931.95" y="3576.64" type="dead_end"/>
    <node id="10870679744" x="5924.28" y="3534.07" type="dead_end"/>
    <node id="10870679746" x="6084.60" y="3802.99" type="priority"/>
    <node id="10870679749" x="6143.80" y="3768.51" type="priority"/>
    <node id="10870679752" x="6216.79" y="3767.21" type="dead_end"/>
    <node id="10870679753" x="6217.30" y="3785.09" type="dead_end"/>
    <node id="10870679755" x="6300.40" y="3810.43" type="priority"/>
    <node id="10870679757" x="6346.38" y="3813.11" type="dead_end"/>
    <node id="10870679761" x="6380.47" y="3859.33" type="priority"/>
    <node id="10870679762" x="6372.94" y="3834.23" type="dead_end"/>
    <node id="10870679766" x="6363.97" y="3767.01" type="dead_end"/>
    <node id="10870679769" x="6224.81" y="3796.77" type="dead_end"/>
    <node id="10870679771" x="6252.13" y="3797.58" type="dead_end"/>
    <node id="10870679772" x="6226.57" y="3789.02" type="dead_end"/>
    <node id="10870679780" x="5936.11" y="3534.42" type="priority"/>
    <node id="10870679781" x="5965.42" y="3682.86" type="dead_end"/>
    <node id="10874902569" x="6534.03" y="3665.98" type="dead_end"/>
    <node id="10874902571" x="6632.80" y="3636.16" type="dead_end"/>
    <node id="10874902572" x="6653.30" y="3618.84" type="dead_end"/>
    <node id="10874902573" x="6653.51" y="3577.11" type="priority"/>
    <node id="10874902575" x="6534.59" y="3677.28" type="dead_end"/>
    <node id="10874902578" x="6583.56" y="3682.36" type="dead_end"/>
    <node id="10874902588" x="6748.99" y="3573.08" type="dead_end"/>
    <node id="10874902593" x="6653.48" y="3582.55" type="dead_end"/>
    <node id="10874902594" x="6722.83" y="3581.35" type="dead_end"/>
    <node id="10874902600" x="6822.12" y="3571.20" type="dead_end"/>
    <node id="10874902601" x="6664.98" y="3615.46" type="dead_end"/>
    <node id="10874924409" x="6691.86" y="3602.17" type="dead_end"/>
    <node id="10874924413" x="6740.87" y="3539.84" type="dead_end"/>
    <node id="10874924414" x="6724.71" y="3585.06" type="dead_end"/>
    <node id="10874924415" x="6751.32" y="3585.65" type="dead_end"/>
    <node id="10874924419" x="6581.78" y="3695.91" type="dead_end"/>
    <node id="10874924442" x="6606.67" y="3657.91" type="dead_end"/>
    <node id="10887187738" x="9284.83" y="2735.20" type="priority"/>
    <node id="10887187739" x="9287.42" y="2729.11" type="priority"/>
    <node id="10893698884" x="4073.28" y="950.96" type="priority"/>
    <node id="10913818577" x="6041.64" y="3154.05" type="dead_end"/>
    <node id="10913832597" x="4496.57" y="3874.39" type="dead_end"/>
    <node id="10913832600" x="4499.16" y="3885.53" type="dead_end"/>
    <node id="10913832602" x="4532.07" y="3950.57" type="dead_end"/>
    <node id="10913851311" x="4452.05" y="4015.70" type="dead_end"/>
    <node id="10916241396" x="4400.52" y="3516.85" type="dead_end"/>
    <node id="10948765340" x="7312.26" y="2120.41" type="dead_end"/>
    <node id="10948765341" x="7310.21" y="2014.53" type="dead_end"/>
    <node id="10948765342" x="7311.36" y="2074.05" type="dead_end"/>
    <node id="10948765364" x="7361.85" y="2048.80" type="dead_end"/>
    <node id="10948765383" x="7310.49" y="2029.03" type="dead_end"/>
    <node id="10948765399" x="7402.95" y="2042.90" type="priority"/>
    <node id="10948765400" x="7310.40" y="2023.77" type="dead_end"/>
    <node id="10948769178" x="6169.53" y="3302.32" type="dead_end"/>
    <node id="10948769186" x="6175.30" y="3281.78" type="priority"/>
    <node id="10948774722" x="7162.13" y="2064.04" type="dead_end"/>
    <node id="10949063963" x="8315.02" y="4562.99" type="right_before_left"/>
    <node id="10949086135" x="8331.94" y="4147.65" type="dead_end"/>
    <node id="10949092712" x="6015.25" y="3658.63" type="dead_end"/>
    <node id="10949092719" x="5983.85" y="3641.57" type="dead_end"/>
    <node id="10949092745" x="6022.13" y="3657.83" type="dead_end"/>
    <node id="10949092752" x="6027.81" y="3639.63" type="dead_end"/>
    <node id="10949092756" x="5977.13" y="3655.74" type="dead_end"/>
    <node id="10949092763" x="5948.58" y="3629.61" type="priority"/>
    <node id="10949116529" x="5965.18" y="3081.32" type="dead_end"/>
    <node id="10949116551" x="4839.50" y="3656.89" type="dead_end"/>
    <node id="10949116579" x="4666.17" y="3585.88" type="dead_end"/>
    <node id="10949121414" x="4500.60" y="3537.59" type="dead_end"/>
    <node id="10949121425" x="4434.89" y="3535.91" type="dead_end"/>
    <node id="10949121431" x="4400.39" y="3531.11" type="dead_end"/>
    <node id="10949121432" x="4434.58" y="3548.30" type="dead_end"/>
    <node id="10949121433" x="4500.28" y="3548.24" type="dead_end"/>
    <node id="10949121434" x="4576.22" y="3563.09" type="dead_end"/>
    <node id="10949121435" x="4580.15" y="3549.51" type="dead_end"/>
    <node id="10949121436" x="4663.42" y="3593.61" type="dead_end"/>
    <node id="10949121449" x="5489.12" y="3782.21" type="dead_end"/>
    <node id="10949121450" x="5488.36" y="3764.09" type="dead_end"/>
    <node id="10949121454" x="5507.08" y="3774.19" type="dead_end"/>
    <node id="10949121489" x="5522.32" y="3702.17" type="dead_end"/>
    <node id="10951117832" x="5405.88" y="3629.46" type="dead_end"/>
    <node id="10951117833" x="5385.09" y="3674.39" type="dead_end"/>
    <node id="10951117834" x="5393.41" y="3656.43" type="dead_end"/>
    <node id="10951117835" x="5402.90" y="3660.49" type="dead_end"/>
    <node id="10977558754" x="3475.92" y="2239.04" type="dead_end"/>
    <node id="10977558756" x="3491.39" y="2247.05" type="priority"/>
    <node id="10977558758" x="3475.61" y="2260.51" type="dead_end"/>
    <node id="10977558759" x="3419.37" y="2244.89" type="dead_end"/>
    <node id="10977558761" x="3409.07" y="2258.65" type="dead_end"/>
    <node id="10977558762" x="3351.08" y="2243.48" type="dead_end"/>
    <node id="10977558764" x="3334.45" y="2257.82" type="dead_end"/>
    <node id="10977558765" x="3279.65" y="2242.33" type="dead_end"/>
    <node id="10977558767" x="3265.01" y="2257.39" type="dead_end"/>
    <node id="10977558771" x="3164.90" y="2241.94" type="dead_end"/>
    <node id="10977558773" x="3148.31" y="2259.82" type="dead_end"/>
    <node id="10977558774" x="3105.77" y="2240.90" type="dead_end"/>
    <node id="10977558776" x="3094.41" y="2264.36" type="dead_end"/>
    <node id="10977558777" x="3066.71" y="2241.76" type="dead_end"/>
    <node id="10977558778" x="3058.40" y="2257.06" type="dead_end"/>
    <node id="11049035555" x="7477.24" y="3095.05" type="priority"/>
    <node id="11049035556" x="7373.09" y="3098.66" type="priority"/>
    <node id="11106581783" x="7350.44" y="2594.60" type="priority"/>
    <node id="11106581787" x="5905.15" y="3806.43" type="dead_end"/>
    <node id="11106581789" x="5893.79" y="3784.66" type="dead_end"/>
    <node id="11116148441" x="8167.09" y="4419.23" type="priority"/>
    <node id="11147848750" x="2697.48" y="3853.94" type="dead_end"/>
    <node id="11166086828" x="7306.65" y="4729.45" type="dead_end"/>
    <node id="11166086830" x="7320.14" y="4698.65" type="dead_end"/>
    <node id="11166086833" x="7279.62" y="4679.93" type="dead_end"/>
    <node id="11166086834" x="7279.35" y="4729.71" type="dead_end"/>
    <node id="11166105671" x="7369.75" y="4717.29" type="priority"/>
    <node id="11183690489" x="4968.11" y="1052.97" type="priority"/>
    <node id="11183690495" x="5022.68" y="1046.73" type="priority"/>
    <node id="11183690504" x="4991.79" y="924.74" type="priority"/>
    <node id="11183690505" x="5040.32" y="924.98" type="priority"/>
    <node id="11212956014" x="7728.82" y="2991.39" type="right_before_left"/>
    <node id="11212956017" x="7727.90" y="2973.13" type="priority"/>
    <node id="11213240003" x="7677.95" y="2987.72" type="dead_end"/>
    <node id="11214902469" x="2275.73" y="1683.69" type="right_before_left"/>
    <node id="11214902470" x="2275.75" y="1669.79" type="dead_end"/>
    <node id="11214902471" x="2320.86" y="1627.57" type="priority"/>
    <node id="11214902472" x="2281.45" y="1628.46" type="right_before_left"/>
    <node id="11214902473" x="2281.64" y="1645.08" type="dead_end"/>
    <node id="11303956501" x="8986.89" y="812.36" type="priority"/>
    <node id="11380820892" x="7686.41" y="3846.08" type="priority"/>
    <node id="11380820894" x="7733.38" y="3797.01" type="priority"/>
    <node id="11380820905" x="7733.03" y="3862.06" type="priority"/>
    <node id="11380820906" x="7797.40" y="3809.26" type="priority"/>
    <node id="11387693426" x="6124.45" y="1013.25" type="right_before_left"/>
    <node id="11387693427" x="6041.43" y="995.44" type="right_before_left"/>
    <node id="11387693428" x="6149.64" y="1018.90" type="priority"/>
    <node id="1140123211" x="7620.38" y="670.92" type="dead_end"/>
    <node id="1140123277" x="7633.38" y="662.70" type="dead_end"/>
    <node id="11402670885" x="7845.33" y="2310.58" type="priority"/>
    <node id="11402670896" x="7639.85" y="2245.43" type="priority"/>
    <node id="11402670901" x="7978.31" y="2329.87" type="priority"/>
    <node id="11402670902" x="7846.11" y="2317.31" type="priority"/>
    <node id="11402670905" x="7968.85" y="2356.70" type="priority"/>
    <node id="11402670907" x="8017.25" y="2434.60" type="priority"/>
    <node id="11402670915" x="8062.94" y="2432.18" type="priority"/>
    <node id="11402670921" x="8079.53" y="2393.54" type="priority"/>
    <node id="1142099680" x="3094.04" y="4382.29" type="priority"/>
    <node id="1142099687" x="3126.38" y="4374.10" type="priority"/>
    <node id="1142102198" x="2920.62" y="5550.43" type="dead_end"/>
    <node id="1142102200" x="2960.21" y="5550.79" type="dead_end"/>
    <node id="1142108266" x="2861.36" y="4103.22" type="priority"/>
    <node id="1142108267" x="2883.67" y="4195.35" type="priority"/>
    <node id="1142108268" x="2903.56" y="4283.93" type="priority"/>
    <node id="1142108291" x="2820.47" y="4282.13" type="priority"/>
    <node id="1142108303" x="2812.49" y="4508.79" type="priority"/>
    <node id="1142108307" x="2813.69" y="4462.81" type="priority"/>
    <node id="1142108312" x="2821.69" y="4236.74" type="priority"/>
    <node id="1142108316" x="2823.75" y="4194.26" type="priority"/>
    <node id="1142108320" x="2827.00" y="4102.92" type="priority"/>
    <node id="1142108334" x="2756.72" y="4191.66" type="priority"/>
    <node id="1142108423" x="2491.41" y="4454.83" type="traffic_light" tl="joinedS_1142108423_4658815614_4658815615" tlType="actuated" controlledInner="390758333#12"/>
    <node id="1142115527" x="2505.35" y="3803.49" type="priority"/>
    <node id="1142115542" x="2502.36" y="3681.70" type="traffic_light" tl="joinedS_1142115542_7722099395_7722099397" tlType="actuated" controlledInner="330746961#5"/>
    <node id="1142115545" x="3017.07" y="3802.60" type="traffic_light" tl="1142115545" tlType="actuated"/>
    <node id="1142115583" x="3047.04" y="3801.54" type="priority"/>
    <node id="1142115585" x="2651.77" y="3883.18" type="priority"/>
    <node id="1142115589" x="3136.76" y="3768.25" type="priority"/>
    <node id="1142115590" x="2946.76" y="4018.57" type="priority"/>
    <node id="1142116908" x="2554.57" y="3878.53" type="priority"/>
    <node id="1142118620" x="3128.21" y="4164.08" type="priority"/>
    <node id="1142118659" x="3085.96" y="4011.85" type="priority"/>
    <node id="11485025027" x="7873.76" y="4385.15" type="dead_end"/>
    <node id="11485025030" x="7898.88" y="4337.54" type="dead_end"/>
    <node id="11485025031" x="7909.24" y="4293.31" type="dead_end"/>
    <node id="11485025032" x="7919.11" y="4270.24" type="dead_end"/>
    <node id="11485025034" x="7893.57" y="4208.08" type="dead_end"/>
    <node id="11485025036" x="7894.22" y="4160.75" type="priority"/>
    <node id="11485025040" x="7863.66" y="4332.74" type="dead_end"/>
    <node id="11485025043" x="7839.50" y="4346.51" type="dead_end"/>
    <node id="11485025044" x="7856.14" y="4318.68" type="dead_end"/>
    <node id="11485025056" x="7969.49" y="4290.38" type="dead_end"/>
    <node id="11485025063" x="7947.58" y="4262.32" type="dead_end"/>
    <node id="11485025066" x="7827.42" y="4202.15" type="dead_end"/>
    <node id="11485025067" x="7845.26" y="4215.40" type="dead_end"/>
    <node id="11485643770" x="7982.71" y="4237.84" type="dead_end"/>
    <node id="11485643774" x="8018.40" y="4237.23" type="dead_end"/>
    <node id="11485643778" x="7985.25" y="4184.08" type="dead_end"/>
    <node id="11505656543" x="3509.22" y="4674.73" type="dead_end"/>
    <node id="11505656545" x="3521.23" y="4679.81" type="dead_end"/>
    <node id="11505656558" x="3511.26" y="4675.60" type="dead_end"/>
    <node id="11505656559" x="3518.30" y="4678.58" type="dead_end"/>
    <node id="11505656565" x="3482.90" y="4701.52" type="dead_end"/>
    <node id="11505657792" x="3522.16" y="4753.08" type="dead_end"/>
    <node id="11505715307" x="3648.86" y="4517.53" type="priority"/>
    <node id="11505715308" x="3660.19" y="4553.16" type="priority"/>
    <node id="11505715309" x="3698.73" y="4501.67" type="priority"/>
    <node id="11505715311" x="3710.41" y="4537.08" type="priority"/>
    <node id="11505715312" x="3611.56" y="4568.73" type="priority"/>
    <node id="11505715313" x="3621.76" y="4597.81" type="dead_end"/>
    <node id="11505715321" x="3627.67" y="4604.34" type="dead_end"/>
    <node id="11505715339" x="3620.59" y="4594.37" type="dead_end"/>
    <node id="11506879273" x="3481.92" y="2238.61" type="dead_end"/>
    <node id="11506879274" x="3467.45" y="2255.26" type="dead_end"/>
    <node id="11506879275" x="3416.36" y="2234.63" type="dead_end"/>
    <node id="11506879276" x="3400.02" y="2248.52" type="dead_end"/>
    <node id="11506879277" x="3349.77" y="2234.82" type="dead_end"/>
    <node id="11506879278" x="3330.36" y="2244.75" type="dead_end"/>
    <node id="11506879279" x="3277.80" y="2239.59" type="dead_end"/>
    <node id="11506879280" x="3258.51" y="2248.82" type="dead_end"/>
    <node id="11506879281" x="3216.70" y="2239.55" type="dead_end"/>
    <node id="11506879282" x="3199.57" y="2252.58" type="dead_end"/>
    <node id="11508578188" x="3670.21" y="4409.66" type="dead_end"/>
    <node id="11508578189" x="3684.26" y="4419.30" type="dead_end"/>
    <node id="11508578190" x="3572.84" y="4455.58" type="dead_end"/>
    <node id="11508578191" x="3670.74" y="4423.76" type="dead_end"/>
    <node id="11508578192" x="3583.26" y="4452.14" type="dead_end"/>
    <node id="11508578196" x="3580.00" y="4476.07" type="dead_end"/>
    <node id="11508578197" x="3684.02" y="4406.50" type="dead_end"/>
    <node id="11508578205" x="3596.92" y="4441.10" type="dead_end"/>
    <node id="11508578223" x="3545.66" y="4442.62" type="priority"/>
    <node id="11508578224" x="3503.68" y="4481.89" type="priority"/>
    <node id="11508578225" x="3512.63" y="4479.72" type="priority"/>
    <node id="11508578228" x="3554.34" y="4463.85" type="priority"/>
    <node id="11536154089" x="2947.99" y="1242.74" type="priority"/>
    <node id="11536154092" x="2977.76" y="1275.78" type="right_before_left"/>
    <node id="11536869621" x="4793.07" y="2105.52" type="priority"/>
    <node id="11536869633" x="4791.69" y="2092.96" type="priority"/>
    <node id="11536869643" x="5167.23" y="2216.96" type="priority"/>
    <node id="11536869653" x="5167.32" y="2203.91" type="priority"/>
    <node id="11536869654" x="5169.20" y="2198.12" type="dead_end"/>
    <node id="11536869655" x="4857.36" y="2134.44" type="priority"/>
    <node id="11536869656" x="5132.92" y="2210.84" type="priority"/>
    <node id="11549828427" x="5816.89" y="946.62" type="right_before_left"/>
    <node id="11549828436" x="3872.52" y="3596.77" type="dead_end"/>
    <node id="11549828444" x="4341.71" y="3406.58" type="priority"/>
    <node id="11549828445" x="4333.97" y="3413.49" type="priority"/>
    <node id="11575869411" x="5718.23" y="1502.56" type="priority"/>
    <node id="11575869412" x="5766.47" y="1526.62" type="priority"/>
    <node id="11575869413" x="5919.29" y="1498.27" type="priority"/>
    <node id="11575869417" x="5855.25" y="1552.13" type="priority"/>
    <node id="11575874078" x="5564.76" y="1623.38" type="dead_end"/>
    <node id="11575874083" x="5595.71" y="1705.50" type="dead_end"/>
    <node id="11644518080" x="3183.44" y="2080.41" type="dead_end"/>
    <node id="11644518081" x="3183.20" y="2059.39" type="dead_end"/>
    <node id="11644518082" x="3171.76" y="2040.36" type="priority"/>
    <node id="11644518086" x="3218.59" y="2080.90" type="dead_end"/>
    <node id="11644518087" x="3218.98" y="2059.20" type="dead_end"/>
    <node id="11644518089" x="3229.72" y="2007.40" type="dead_end"/>
    <node id="11644518091" x="3147.43" y="2071.43" type="dead_end"/>
    <node id="11644518092" x="3150.38" y="2074.37" type="dead_end"/>
    <node id="11644518094" x="3167.72" y="2052.41" type="dead_end"/>
    <node id="11644518095" x="3173.01" y="2062.72" type="dead_end"/>
    <node id="11644518096" x="3151.94" y="2075.93" type="dead_end"/>
    <node id="11644518100" x="3229.70" y="2010.93" type="dead_end"/>
    <node id="11644518101" x="3205.79" y="2010.26" type="priority"/>
    <node id="11644518102" x="3222.91" y="2045.42" type="dead_end"/>
    <node id="11644518107" x="3130.96" y="2097.47" type="dead_end"/>
    <node id="11644518108" x="3218.16" y="2099.04" type="dead_end"/>
    <node id="11644518109" x="3324.29" y="2100.53" type="dead_end"/>
    <node id="11644518110" x="3324.41" y="2111.97" type="dead_end"/>
    <node id="11644518111" x="3281.55" y="2111.47" type="dead_end"/>
    <node id="11644518112" x="3218.00" y="2110.25" type="dead_end"/>
    <node id="11644518113" x="3130.87" y="2109.26" type="dead_end"/>
    <node id="11694515836" x="6868.26" y="4087.11" type="priority"/>
    <node id="11727570447" x="4766.32" y="841.42" type="priority"/>
    <node id="11727570448" x="4787.93" y="840.90" type="dead_end"/>
    <node id="11727570449" x="4788.31" y="856.96" type="dead_end"/>
    <node id="11727570450" x="4767.23" y="857.46" type="priority"/>
    <node id="11727570451" x="4788.13" y="849.33" type="dead_end"/>
    <node id="11727570452" x="4840.57" y="847.61" type="dead_end"/>
    <node id="11727570453" x="4788.11" y="873.14" type="priority"/>
    <node id="11727570454" x="4810.90" y="848.59" type="dead_end"/>
    <node id="11727570455" x="4811.55" y="823.34" type="dead_end"/>
    <node id="11727570458" x="4770.83" y="825.92" type="dead_end"/>
    <node id="1176341231" x="6293.13" y="1941.03" type="priority"/>
    <node id="1176400711" x="7105.09" y="2115.57" type="priority"/>
    <node id="1176416382" x="6728.07" y="1743.02" type="priority"/>
    <node id="1176416385" x="6308.59" y="1502.40" type="priority"/>
    <node id="1176416388" x="6272.86" y="1716.92" type="priority"/>
    <node id="1176416396" x="6278.40" y="1554.15" type="priority"/>
    <node id="1176416399" x="6247.25" y="1607.54" type="priority"/>
    <node id="1176416415" x="6457.19" y="1875.28" type="priority"/>
    <node id="1176417219" x="6491.58" y="1814.58" type="priority"/>
    <node id="11794800014" x="8737.77" y="1109.54" type="dead_end"/>
    <node id="11794800019" x="8748.13" y="1056.25" type="priority"/>
    <node id="11794800020" x="8627.74" y="1068.11" type="dead_end"/>
    <node id="11794800021" x="8721.86" y="955.49" type="dead_end"/>