<?xml version="1.0" encoding="UTF-8"?>

<!-- generated on 2024-04-16 19:29:47.151325 by routeSampler.py v1_19_0+0000-baa66a0f364
<configuration>
    <route-files value=".\vehroutes.xml"/>
    <edgedata-files value=".\edgecounts.xml"/>
    <output-file value="passenger.sampled.rou.xml"/>
</configuration>
-->

<routes xmlns:xsi="http://www.w3.org/2001/XMLSchema-instance" xsi:noNamespaceSchemaLocation="http://sumo.dlr.de/xsd/routes_file.xsd">
<!-- begin="0.0" end="7200.0" -->
    <vType id="veh_emergency" vClass="emergency"/>

    <vehicle id="0" depart="1.14">
        <route edges="183397040#0 183397040#1 183397040#2 98725120#0 98725120#1 98725120#2 98725120#3 98725120#4 -183352829#5 -183352829#4 -183352829#3 -183352829#1 183427532#1 183427532#2 183981919#0 183981919#1 183981919#2 -183840100#1 866318725#1 311576774 732411491 266053522 732411485 33072357#0 33072357#1"/>
    </vehicle>
    <vehicle id="1" depart="1.82">
        <route edges="330466886#1 330466886#4 330466886#5 241811786#2 243891935#1 28555484#1 28555484#4 28555484#7 28555484#10 28555484#11 449379871 733033728#0 733033728#1 733033728#2 449379870#0 449379870#1 449379870#2 449379856#0 449379856#1 449379856#2 442788100#0 442788100#1 48769273#0 48769273#1-AddedOnRampEdge 48769273#1 48769273#2 324294400 324294400-AddedOffRampEdge 324294395#0 324294395#1 324294395#2 1076843359 1076843358 1076843375#0 1076843375#1 1076843375#2 159119087 159119081#7 159119081#8 159119081#9 159119081#10 159119081#11 159119081#12 159119081#13 159119081#14 159119081#15 159119081#16 51813024#6 454931328 385290826 454329113 252494919#0"/>
    </vehicle>
    <vehicle id="2" depart="2.23">
        <route edges="449379871 733033728#0 733033728#1 733033728#2 449379870#0 449379870#1 449379870#2 449379856#0 449379856#1 449379856#2 442788100#0 442788100#1 48769273#0 48769273#1-AddedOnRampEdge 48769273#1 506599431#0"/>
    </vehicle>
    <vehicle id="3" depart="2.38">
        <route edges="449379869#5 -330746960#3 -243881880#3 -243881880#2 -243881880#1 23766386#15 23766386#16 23766386#17 449379867#0 449379867#1 449379867#2 449379850#0 449379850#1 449379851#1 413955653#10 413955653#11 413955653#12 413955653#13 160307899#1 208601086#1 1238557272#0 1238557272#1 -1238557272#1"/>
    </vehicle>
    <vehicle id="4" depart="3.99">
        <route edges="1015062342#1 1015062342#2 506599425#1 1015062349#1 506599424#0 506599424#1 506599424#2 506599424#3 238707591#0 238707591#1 238707591#2 304591777#0 304591777#1 304591777#2 304591777#3 304591777#4 95015336 95015334 29174276#0 29174276#1 338923674 779271000 765770904#0 765770904#1 765770904#1-AddedOffRampEdge 45265806 866318730#0 866318730#1 866318730#2 866318730#3 866318730#4 338923676#0 338923676#1 338923676#2 338923676#5 338923676#6 338923676#7 338923676#10 599378884#1 599378884#4 866318725#1 311576774 732411491 866318724 243908725#0 243908725#2 243908725#3 243908725#4 243908725#5 27864364#1 27864364#2 420571789"/>
    </vehicle>
    <vehicle id="5" depart="6.15">
        <route edges="340670792#1 26794101#7 26794101#8 310804115#1 310804115#2 242430205#9 242430205#10 242430205#11 242430205#13 311359944#1 311359943#1 311359943#4 48769264#1 48769264#2 48769264#3 48769264#4 442788100#0 442788100#1 48769273#0 48769273#1-AddedOnRampEdge 48769273#1 48769273#2"/>
    </vehicle>
    <vehicle id="6" depart="8.25">
        <route edges="319203388#11 319203388#12 319203388#15 319203388#17 319203388#21 319203388#22 686241189 311882379#1 311882379#2 311882379#3 311882379#4 75258768 75258777#0 984753536#0 984753536#1 317833366#0 317833366#1 78050807 1074594867 78050810 160125697#0 160125697#1 160125697#2 1188237787#0 1188237787#1 1188237787#3 454329113 252494919#0 252494919#1"/>
    </vehicle>
    <vehicle id="7" depart="8.67">
        <route edges="765770904#1-AddedOffRampEdge 45265806 866318730#0 866318730#1 866318730#2 866318730#3 866318730#4 338923676#0 338923676#1 338923676#2 338923676#5 338923676#6 338923676#7 338923676#10 599378884#1 599378884#4 866318725#1 311576774 732411491 866318724 243908725#0 243908725#2 243908725#3 243908725#4 243908725#5 243908725#6 243908725#7 461206602 732411488 732411487 882789874#0 244421758#2 244421758#3 37099791#0 37099791#1 37099791#3 449379851#1 413955653#10 413955653#11 -330466878#17 -330466878#16 -330466878#14 -330466878#9 -330466878#8 -330466878#7 -330466878#5 -330466878#4 -330466878#3 -330466878#1 -172356275#2 -172356275#1 23766390#1 23766390#2 23766390#3 23766390#4 23766390#7 23766390#8 23766390#9 23766390#10 23766390#12 23766390#13 23766392#0 23766392#2 23766392#3 23766392#4 23766392#5 23766392#7 23766392#8 172358513#0 172358513#1 172358513#2 172358513#3 172358513#4 172358568#1"/>
    </vehicle>
    <vehicle id="8" depart="9.50">
        <route edges="-75829509#3 -75829509#2 319203387#26 319203387#27 353801388#0 353801388#1 51813024#0 501700699 -384232893#9 -384232893#8 -384232893#7 -384232893#6 -384232893#5 -384232893#4 -384232893#3 -384232893#1 -384232893#0 -349858025#3 -349858025#1 -349858025#0 -381892612#3 -381892612#2 -381892612#1 -75844230#1 -75844230#0 381892608 -381892607 696614541#1 696614541#2-AddedOnRampEdge 696614541#2 324318768 1076843337 1076843336 506599431#0 506599431#1 506599431#2 506599431#3"/>
    </vehicle>
    <vehicle id="9" depart="9.60">
        <route edges="196959640 1230559862 196960876 1230559863 1230559864 160435114#0 160435114#1 984753539#0 984753539#1 330461425#0 330461425#1 330461425#4 330461425#5 330461425#8 160435118 160125697#0 160125697#1 160125697#2 1188237787#0 78138169#0 78138169#1 252398634#2 1076843340#0 -244450531#15 -244450531#11 -244450531#9 -244450531#8 -244450531#7 159119370#0 159119370#1 159119370#4 159119370#5 159119370#7 77998955#6 77998955#7 77998955#7-AddedOffRampEdge 77998955#8 77998955#9 77998955#10 1076843375#2 51813018#0 51813018#1 51813018#2 454931329#0-AddedOnRampEdge 454931329#0 454931329#2 454931329#3 454931328 385290826 454329113 252494919#0 252494919#1 252494919#2 252494919#4 78138168 -159933540 159933549 252494908-AddedOnRampEdge 252494908"/>
    </vehicle>
    <vehicle id="10" depart="10.21">
        <route edges="183397040#0 183397040#1 183397040#2 98725120#0 98725120#1 98725120#2 98725120#3 98725120#4 -183352829#5 -183352829#4 -183352829#3 -183352829#1 -183840100#10 -183840100#9 -183427531#1 -183427531#0 183981919#2 -183840100#1 866318725#1 311576774 732411491 266053522 732411485 33072357#0 33072357#1"/>
    </vehicle>
    <vehicle id="11" depart="10.27">
        <route edges="-492566966 78380844#1 28727304#0 28727304#1 552375504#1-AddedOnRampEdge 552375504#1 552375504#1-AddedOffRampEdge 159119612 159119612-AddedOffRampEdge 1074594873 1074594867 78050810 160125697#0 -159119261 -79211517#1 79190859#17 79190859#18 79190859#19 79190859#20 79190859#23 79190859#26 79190859#29 79190859#30 79190859#31 51813024#4 51813024#5 79211500#0 79211500#1"/>
    </vehicle>
    <vehicle id="12" depart="12.42">
        <route edges="252494919#1 252494919#2 252494919#4 252494917 159118950#1 159118950#2 159118950#3 1076843335 696614541#0 696614541#1 696614541#2-AddedOnRampEdge 696614541#2 324318768 1076843337 1076843336 506599431#0 506599431#1 506599431#2 506599431#3 506599431#3-AddedOffRampEdge 911605212#0 911605212#2 911605212#3 449379866#0 449379866#1 449379866#2 23759709#1 23759709#2 23759709#4 23759709#5 23759709#6 401628857#0 311359937#0 311359937#1 311359937#2 -173001718#3"/>
    </vehicle>
    <vehicle id="13" depart="13.48">
        <route edges="183397040#0 183397040#1 183397040#2 390758332#0 390758332#1 390758332#2 390758332#3 390758332#4 330466891#0 330466891#1 330466891#2 330466891#3 330466892#0 330466892#1 330466892#2 -183840100#1 866318725#1 311576774 732411491 266053522 732411485 33072357#0 33072357#1"/>
    </vehicle>
    <vehicle id="14" depart="18.20">
        <route edges="98725120#8 98725120#9 98725120#11 866318730#0 866318730#1 866318730#2 866318730#3 866318730#4 338923676#0 338923676#1 338923676#2 338923676#5 338923676#6 338923676#7 338923676#10 599378884#1 599378884#4 866318725#1 311576774 732411491 866318724 243908725#0 243908725#2 243908725#3 243908725#4 243908725#5 243908725#6 243908725#7 461206602 732411488 732411487 882789874#0 244421758#2 244421758#3 37099791#0 37099791#1 37099791#3 37099791#4 37099791#6 37099791#7 244421739#0 244421739#1 244421739#2 244421738#1 244421738#2 326352584#1 326352584#3 326352584#4 326352584#5 326352584#6 326352584#7 326352584#8 326352584#10 326352584#12 816944388#0 816944388#1 413949758#2 311359936#0 311359936#2 311359936#4 311359936#5 -287735316 -62080940#0 266057208#0 266057208#1 266057208#2 266057208#3 266057208#4 266057208#5 266057208#8 266057208#9 266057208#10 1257895199 1257895197#0 1257895197#1 1257895197#2 1257895197#3"/>
    </vehicle>
    <vehicle id="15" depart="24.33">
        <route edges="48793403 1076843364 1076843363#0 1076843363#1 159118950#1 159118950#2 159118950#3 1076843335 696614541#0 696614541#1 696614541#2-AddedOnRampEdge 696614541#2 324318768 1076843337 1076843336 506599431#0 506599431#1 506599431#2 506599431#3 506599431#3-AddedOffRampEdge 911605212#0 911605212#2 449379855 449379865#0 449379865#1 449379865#2 449379852#0 449379852#1 449379852#2 449379867#0 449379867#1 449379867#2 449379850#0 449379850#1 449379851#1 413955653#10 413955653#11 413955653#12 413955653#13 160307899#1 160307899#2 461206603#1 461206604#1 241536947#0 241536947#1 27864364#1 27864364#2 27864364#4 27864364#5 27864364#6 27864364#7"/>
    </vehicle>
    <vehicle id="16" depart="25.23">
        <route edges="195673600#9 158964745#7 158964745#8 158964745#9 158917967#1 243903727#0 243903727#1 243903727#2 243903727#4 243903727#5 197557008#1 197557008#3 197557008#3-AddedOffRampEdge 197557008#4 197557008#6 197557008#11 197557008#14 472093898#0 472093898#1 158917944#1 158917944#2 -330361184#1 -330361184#0 -203384060#3 -203384060#2 203384053#0 444625978"/>
    </vehicle>
    <vehicle id="17" depart="25.28">
        <route edges="266063761#0 266063761#3 266063761#5 28017818#1 173012839#0 173012839#1 173012839#2 173012839#3 173012835#1 173012838#1 173030662#0 173030662#1 -236367442#5 -236367442#4 -236367442#3 -236367442#2 -236367442#1 -236367442#0 -23766397#6 -23766397#4 -23766397#3 -23766397#2 -23766397#1 -23766397#0 242430205#1 242430205#2 242430205#3 242430205#5 242430205#6 242430205#7 242430205#9 242430205#10 242430205#11 242430205#13 311359944#1 311359943#1 311359943#4 48769264#1 48769264#2 48769264#3 48769264#4 442788100#0 442788100#1 48769273#0 48769273#1-AddedOnRampEdge 48769273#1 48769273#2 51813020 51813007 51812999#1-AddedOnRampEdge 51812999#1 454931326 80117331 1188236156"/>
    </vehicle>
    <vehicle id="18" depart="25.55">
        <route edges="1076843336 506599431#0 506599431#1 506599431#2 506599431#3 506599431#3-AddedOffRampEdge 911605212#0 911605212#2 449379855 449379865#0 449379865#1 449379865#2 449379852#0 449379852#1 449379852#2 -23766386#18 -23766386#16 -23766386#15 -23766386#12 -23766386#9 -23766386#6 -23766386#5 -23766386#3 -23766386#1 730830603#0 244421755#1 244421755#1-AddedOffRampEdge 244421755#2 244421755#3 330746961#0"/>
    </vehicle>
    <vehicle id="19" depart="26.26">
        <route edges="-110526119#4 -110526119#3 -209697116#2 311576793#40 311576793#41 287735328#1 -266063760#3 -266063760#2 -266063760#1 -266063760#0 -1257895198#6 -1257895198#5 -1257895198#2 -1257895198#1 -316690655#10 -316690655#9 -316690655#8 -316690655#7 -316690655#5 -316690655#2 28017818#1 173012839#0 173012839#1 173012839#2 173012839#3 173012835#1 173012838#1 173030662#0 173030662#1 -236367442#5 -236367442#4 -236367442#3 -236367442#2 -236367442#1 -236367442#0 -23766397#6 -23766397#4 -23766397#3 -23766397#2 -23766397#1 -23766397#0 -23766392#19 -23766392#18 -23766392#17 -23766392#16 -23766392#13 -23766392#10 -23766392#9 -23766392#8 -23766392#7 -23766392#5 -23766392#4 -23766392#3 -23766392#2 -23766392#0 -23766390#13 -23766390#12 -23766390#10 -23766390#9 -23766390#8 -23766390#7 -23766390#4 -23766390#3 -23766390#2 -23766390#1 172356275#1 172356275#2 330466878#1 330466878#3 330466878#4 330466878#5 330466878#7 330466878#8 330466878#9 330466878#14 330466878#16 330466878#17 413955653#12 413955653#13 160307899#1 160307899#2 461206603#1 461206604#1 241536947#0 241536947#1 241536947#2 241536947#3 241536947#5 241536947#6 241536947#7 732411485 33072357#0 33072357#1"/>
    </vehicle>
    <vehicle id="20" depart="26.96">
        <route edges="72685016#0 -72581700#9 -72581700#8 -71324231#4 -71324231#3 -72452250#2 -72452250#1 311882379#3 311882379#4 75258768 75258777#0 984753536#0 984753536#1 317833366#0 317833366#1 78050807 1074594867 78050810 160125697#0 160125697#1 160125697#2 1188237787#0 1188237787#1 1188237787#3 454329113 252494919#0 252494919#1 252494919#2 252494919#4 252494917 159118950#1 159118950#2 159118950#3 1076843335 696614541#0 696614541#1 696614541#2-AddedOnRampEdge 696614541#2 324318768 51813002 51813011#0"/>
    </vehicle>
    <vehicle id="21" depart="28.98">
        <route edges="90590336#3 89807181#1 89807181#2 89807181#4 89807181#5 89807181#6 89807181#9 89807181#12 158964730#11 158964730#12 158964730#13 158964730#14 311576783#2 311576783#3 311576783#4 311576783#7 311576783#8 311576783#9 311576783#10 311139734#2 311139734#3 311139734#4 311139734#7 311139734#8 311139734#9 311139734#11 311139734#12 1230559864 160435115#0 160435115#1 -60443718#7 -60443718#4 -60443718#3 101897574#1 60443732#1 101898564#1 101898564#2 244421769#1 244421769#3 244421769#4 244421769#7 244421769#10 403494981#0 403494981#1 244450534#6 244450534#7 244450534#9 244450534#10 244450533#0 244450533#1 244450533#5 244450533#6 404179546 1070996019 52907067 1241641166 1241641159 1241641167 1070996017 1070996018 51272312#0 311438968#1 311438968#4 313235569#1 313235569#2 313235569#4 313235569#6 313235569#7 313235569#8 313235569#11 313235569#12 264427427#0 260789418#0 260789418#1 260789418#2 260789418#3 260789418#4 1015062342#1 1015062342#2 506599425#1 1015062349#1 506599424#0 506599424#1 506599424#2 506599424#3 238707591#0 238707591#1 238707591#2 304591777#0 304591777#1 304591777#2 304591777#3 304591777#4 95015336 95015334 29174276#0 29174276#1 338923674"/>
    </vehicle>
    <vehicle id="22" depart="29.24">
        <route edges="78380834 78380844#0 78380844#1 28727304#0 28727304#1 552375504#1-AddedOnRampEdge 552375504#1 552375504#1-AddedOffRampEdge 159119612 159119612-AddedOffRampEdge 1074594873 1074594867 78050810 160125697#0 32427587#2 159119253 159119256 248431400#3 248431400#4 317833373#1 75367779 30620479#0 30620479#1-AddedOnRampEdge 30620479#1 -316842893#30 -316842893#29 -316842893#28 -316842893#27 -316842893#24 -316842893#22 -316842893#19 -316842893#18 -316842893#15 -316842893#11"/>
    </vehicle>
    <vehicle id="23" depart="29.53">
        <route edges="183397040#0 183397040#1 183397040#2 98725120#0 98725120#1 98725120#2 98725120#3 98725120#4 -183352829#5 -183352829#4 -183352829#3 -183352829#1 183427532#1 183427532#2 183981919#0 183981919#1 183981919#2 -183840100#1 866318725#1 311576774 732411491 266053522 732411485 33072357#0 33072357#1"/>
    </vehicle>
    <vehicle id="24" depart="29.72">
        <route edges="209696333#7 -23760430#5 -23760430#4 -23760430#3 -23760430#2 -23760430#1 244247466#4 244247466#5 244247466#6 330327011#0 330327011#1 330327011#3 330327011#5 330327011#6 288522785 190680665#0 190680665#1 190680665#2 190680665#3 -190680399#2 -190680399#1 -190680399#0 189005460#1 189005460#2 189005460#5 189005460#6 311576785#1 49788433#0 49788433#3 49788433#4 404179546 1070996019 52907067 1241641166 1241641159 1241641167 1070996017 1070996018 51272312#0 311438968#1 311438968#4 313235569#1 313235569#2 313235569#4 313235569#6 313235569#7 313235569#8 313235569#11 313235569#12 264427427#0 241545650#0 241545650#1 241545650#2 374332365#0 374332365#1 264484756 232361473"/>
    </vehicle>
    <vehicle id="25" depart="30.22">
        <route edges="-27864364#4 -27864364#2 -27864364#1 241536947#2 241536947#3 241536947#5 241536947#6 241536947#7 732411485 732411490 732411489 243908724#0 243908724#1 407206572#1 407206572#4 407206572#6 407206572#9 407206572#12 407206572#13 407206572#14 866318728#1 866318728#2 137317907#1 137317904#1 338929664 779271019 779271001#0 779271001#1 137317902 137317913 198589897#0 198589897#1 198589897#2 198589897#3 198589897#4 198589897#5 198589897#6 198589896 264859963 506316028#0 506316028#1 506316028#2 1015062344#0 1015062344#1 1015062348#0 506599423#1 506599423#2 506599423#3 264410144 506599428 311138396#0 311138396#1 311138396#2 311138396#3 506599429#1 506599429#3 506599429#5 506599429#7 51272319#2 51272319#3 51272319#4 51272319#5 51272319#6 51272319#9 51272319#10 51272319#11 51821757#0 51821757#1 772891695#13 772891695#14 772891695#15 772891695#0 772891695#1 772891695#2 1126953800#0"/>
    </vehicle>
    <vehicle id="26" depart="30.83">
        <route edges="449395545#0 -449395545#0 449379874#0 449379874#1 449379874#2 449379874#5 449379874#6 449379874#8 449379874#9 449379874#10 449395543#1 449395546#1 449395547#1 449395547#4 640946110#1 640946106 159936447#2 159936447#4 159936447#6 159936447#7 407206572#9 407206572#12 407206572#13 407206572#14 866318728#1 866318728#2 137317907#1 137317904#1 338929664 779271019 779271001#0 779271001#1 137317902 137317913 95015336 95015334 29174276#0 29174276#1 338923674"/>
    </vehicle>
    <vehicle id="27" depart="31.69">
        <route edges="324294395#0 324294395#1 324294395#2 1076843359 1076843358 1076843375#0 1076843375#1 1076843375#2 159118950#1 159118950#2 159118950#3 1076843335 696614541#0 696614541#1 696614541#2-AddedOnRampEdge 696614541#2 324318768 1076843337 1076843336 506599431#0 506599431#1 506599431#2 506599431#3 506599431#3-AddedOffRampEdge 911605212#0 911605212#2 911605212#3 26790156#0 48769264#3 449379865#1 449379865#2 449379852#0 449379852#1 449379852#2 449379867#0 449379867#1 449379867#2 449379850#0 449379850#1 37099791#4 37099791#6"/>
    </vehicle>
    <vehicle id="28" depart="32.27">
        <route edges="506316039#0 506316033#0 506316030#1 506316030#2 506316030#3 506316030#5 506316030#6 291325260#1 291325260#2 291325260#5 291325260#6 374332384#0 374332384#1 374332383 374332382 232361473 144500732#0 144500732#1 144500732#2 144500732#3 144500732#5 144500732#8 144500732#11 -1059586393#7 -1059586393#6 -1059586393#5 -1059586393#4 -1059586393#1 -1059586393#0 506599429#1 506599429#3 506599429#5 506599429#7 311964637#1 311964637#2 311964637#3 311964637#5 287735325#1 1241641160 1241641161 51272313 401628856 52907069#1 52907069#2 52907069#5 52907069#6 52907069#7 75258707#1 75258707#2 75258707#5 75258707#6 75258707#9 75258707#11 75258707#12 243905111#1 311139734#3 311139734#4 -330462871#3 -330462871#2"/>
    </vehicle>
    <vehicle id="29" depart="33.44">
        <route edges="327528743#2 327528743#5 327528743#8 327528743#11 238710694#0 238710694#1 238710694#2 238710694#3 238710694#6 1126953799#0 1126953799#1 772891695#4 772891695#5 772891695#6 772891695#7 772891695#8 772891695#9 51354470#0 51354470#1 51272318#3 557553456#0 557553456#1 557553456#2 557553456#5 557553456#6 557553456#8 557553456#9 557553456#10 311964637#1 311964637#2 311964637#3 311964637#5 287735325#1 1241641160 1241641161 51272313 401628856 404179546 159118865#0 159118865#1 51813023 506599433#0 506599433#1 506599433#2 506599433#3 506599433#4 244618587#1 244618587#2 326352594#1 244618586#1 244618585#0 244618585#1 244618585#2 244618585#3 244618585#5 252494929#0 252494929#1 454931329#3 336696223#0 336696223#1 32427587#0 32427587#1 32427587#2 159119253 159119256 248431400#3 248431400#4 79211514#0 79211514#1 384232893#26 384232893#28 384232893#29 384232893#30 384232893#31 384232893#34 -75844191#0"/>
    </vehicle>
    <vehicle id="30" depart="34.56">
        <route edges="159060551#5 338923676#5 338923676#6 338923676#7 338923676#10 599378884#1 599378884#4 866318725#1 866318746 243908725#0 243908725#2 243908725#3 243908725#4 243908725#5 243908725#6 243908725#7 461206602 732411488 732411487 882789874#0 244421758#2 244421758#3 37099791#0 37099791#1 37099791#3 37099791#4 37099791#6 37099791#7 244421739#0 244421739#1 244421739#2 244421738#1 244421738#2 326352584#1 326352584#3 326352584#4 326352584#5 326352584#6 326352584#7 326352584#8 326352584#10 326352584#12 816944388#0 816944388#1 311359944#1 311359943#1 311359943#4 -442788101#15 -442788101#14 -442788101#12 -442788101#11 -442788101#8 -442788101#6 -442788101#5 -442788101#4 -442788101#3 -442788101#1 -442788101#0 -330461417#13 -330461417#12 -330461417#11 -330461417#8 -330461417#7 -330461417#4 -330461417#2 -330461417#1 -188725041#7 -188725041#6 -188725041#4 -188725041#3 -188725041#2 -188725041#1 -188725041#0 311860248#0 311860248#1 311860248#2 311860248#3 311860248#4 311860248#5 311860248#6 311860248#7 60443718#1 60443718#2 -60443722#11 -60443722#9"/>
    </vehicle>
    <vehicle id="31" depart="37.53">
        <route edges="173939208#2 599378884#4 866318725#1 311576774 732411491 866318724 243908725#0 243908725#2 243908725#3 243908725#4 243908725#5 243908725#6 243908725#7 461206602 732411488 732411487 882789874#0 244421758#2 244421758#3 37099791#0 37099791#1 37099791#3 37099791#4 37099791#6 37099791#7 244421739#0 244421739#1 244421739#2 244421738#1 244421738#2 326352584#1 326352584#3 326352584#4 326352584#5 326352584#6 326352584#7 326352584#8 326352584#10 326352584#12 816944388#0 816944388#1 413949758#2 311359936#0 311359936#2 311359936#4 311359936#5 266057210 1257895202#0 1257895202#1 1257895202#2 244120030#1 244120030#2 244120030#3 244120030#6 158948978#1 158948978#2 244247466#0 244247466#1 244247466#2 244247466#4 244247466#5 244247466#6 330327011#0 330327011#1 330327011#3 330327011#5 330327011#6 288522785 160435117#1 160435117#2 160435117#5 311576777#0 311139734#2 311139734#3 311139734#4 311139734#7 311139734#8 311139734#9 311139734#11 311139734#12 1230559864 160435114#0 160435114#1 984753539#0 984753539#1 -60443730#2 -60443730#1 248431400#1 248431400#2 248431400#3 248431400#4 317833373#1 75367779 30620479#0 30620479#1-AddedOnRampEdge 30620479#1 72684990 72650899#1 319203387#1 319203387#2 319203387#5 319203387#7 319203387#10 319203387#12 319203387#15 319203387#18 319203387#20 319203387#21 -75829500#1 -75829500#0 75829500#0 75829500#1"/>
    </vehicle>
    <vehicle id="32" depart="42.72">
        <route edges="-311860248#0 311576785#1 49788433#0 49788433#3 49788433#4 404179546 1070996019 52907067 1241641166 1241641159 1241641167 1070996017 1070996018 51272312#0 317406911#1 317406911#2 317406911#3 317406911#4 317406911#5 317406911#6 317406911#7 772891691#1 772891691#2 772891691#3 772891691#4 772891691#5 772891691#7 310849380#1 310849380#3 310849380#4 310677990#0 310677990#1 310677990#2 310677990#5 310677990#6 51813042#1 51813029#8 51813029#10 51813029#11 51813029#12 51813029#13"/>
    </vehicle>
    <vehicle id="33" depart="42.78">
        <route edges="449379869#5 -330746960#3 -243881880#3 -243881880#2 -243881880#1 23766386#15 23766386#16 23766386#17 449379868 244421761#0 244421761#1 244421761#2 244421761#4 244421759#0 244421759#1 244421759#3 413955653#1 413955653#2 413955653#3 413955653#6 413955653#8 413955653#10 413955653#11 413955653#12 413955653#13 160307899#1 160307899#2 -208601074#3 -208601074#2 -208601074#1 -208601074#0 -1238557272#1"/>
    </vehicle>
    <vehicle id="34" depart="43.83">
        <route edges="-340667919#1 340667919#1 340667919#2 330229638#4 330229638#5 330229638#6 242317221#1 242317221#2 242317221#3 242317221#5 -1257895203#1 -1257895203#0 -330461417#13 -330461417#12 -330461417#11 -330461417#8 -330461417#7 158758840#1 158758840#2 158758840#3 -158758846#2 -158758846#0 -52907072#2 -52907072#0 -404179545#1 404179546 159118865#0 159118865#1 51813023 506599433#0 506599433#1 506599433#2 506599433#3 506599433#4 244618587#1 244618587#2 326352586#1 326352586#4 326352586#5 326352586#7 326352586#10"/>
    </vehicle>
    <vehicle id="35" depart="44.13">
        <route edges="78380844#1 28727304#0 28727304#1 552375504#1-AddedOnRampEdge 552375504#1 552375504#1-AddedOffRampEdge 552375500 160435107 188722640#0 188722640#1 188722640#2 188722640#3 188587032#14 188587032#15 188722645#1 188722645#2 188722645#3 1074594861 1074594862#1 75258721#4 75258721#5 75258721#6 317833361 317833373#1 75367779 30620479#0 30620479#1-AddedOnRampEdge 30620479#1 196960879 781806471 75717910#0 75717910#1 75717910#5 75717910#7 75717910#10 75717910#11 75717910#13 75717910#17 -73750318#9 -73750318#8 -73750318#7 -73750318#6 -73750318#5 73750324#1"/>
    </vehicle>
    <vehicle id="36" depart="46.71">
        <route edges="311860250#3 -189781442#1 -189781442#0 1229613905#0 1229613905#1 1229613905#2 -258599306#1 -258599306#0 -258599304#1 -258599304#0 -258599308#1 -258599308#0 1074594861 1074594862#1 75258721#4 -80836670 317833366#1 78050807 1074594867 78050810 160125697#0 160125697#1 160125697#2 1188237787#0 78138169#0 78138169#1 252398634#2 1076843340#0 244450526#2 244450527#1 244450527#2 326352590#1 244450529#1 244450529#1-AddedOffRampEdge 244450529#2 244450529#3 793234603 793234609#1 793234609#2 48769273#2 324294400 324294400-AddedOffRampEdge 48793395 48793392 51268669#3 51268669#5 51268669#6 232361463#1 232361463#2 232361463#3 -506389482#7 -506389482#6 -506389482#4 -506389482#3 -506389482#2 377740853 377740862#3 377740862#4"/>
    </vehicle>
    <vehicle id="37" depart="46.72">
        <route edges="90590336#3 89807181#1 89807181#2 89807181#4 89807181#5 89807181#6 89807181#9 89807181#12 158964730#11 158964730#12 158964730#13 158964730#14 311576783#2 311576783#3 311576783#4 311576783#7 311576783#8 311576783#9 311576783#10 311139736#1 311576784#0 311576784#2 189005460#1 189005460#2 189005460#5 189005460#6 188725041#0 188725041#1 188725041#2 188725041#3 188725041#4 188725041#6 188725041#7 330461417#1 330461417#2 330461417#4 158758840#1 158758840#2 -330461414#2 -158758833#1"/>
    </vehicle>
    <vehicle id="38" depart="51.34">
        <route edges="49153824#7 49153824#8 49153824#9 49153824#11 762049681#1 762049682#0 762049682#3 -723287477#3 -723287477#2 -160125705#2 319203388#11 319203388#12 319203388#15 319203388#17 319203388#21 319203388#22 686241189 311882379#1 311882379#2 311882379#3 311882379#4 75258768 75258777#0 984753536#0 984753536#1 317833366#0 317833366#1 317833366#2 317833366#3 317833366#4 60443730#0 60443730#1 60443730#2 330461426#1 -101898194#4 -101898194#1 -60443718#4 -60443718#3 -60443718#2 -60443718#1 -311860248#7 -311860248#6 -311860248#5 -311860248#4 -311860248#3 -311860248#2 -311860248#1 -311860248#0 188725041#0 188725041#1 188725041#2 188725041#3 188725041#4 188725041#6 188725041#7 330461417#1 330461417#2 330461417#4 330461417#7 330461417#8 330461417#11 330461417#12 330461417#13 442788101#0 442788101#1 442788101#3 442788101#4 442788101#5 442788101#6 442788101#8 442788101#11 442788101#12 442788101#14 442788101#15 324294424#0 324294424#1 324294424#2 816944389#1 816944389#2 324294428#1 324294428#3 324294428#4 324294428#7 324294428#8 324294428#9 326352589#1 244421759#0 244421759#1 244421759#3 413955653#1 413955653#2 413955653#3 413955653#6 413955653#8 413955653#10 413955653#11 413955653#12 413955653#13 160307899#1 160307899#2 461206603#1 461206604#1 241536947#0 241536947#1 241536947#2 241536947#3 241536947#5 241536947#6 243383414#0"/>
    </vehicle>
    <vehicle id="39" depart="52.22">
        <route edges="-492566966 78380844#1 28727304#0 28727304#1 552375504#1-AddedOnRampEdge 552375504#1 552375504#1-AddedOffRampEdge 159119612 159119612-AddedOffRampEdge 159119651 317833366#3 317833366#4 60443730#0 248431400#1 248431400#2 248431400#3 248431400#4 317833373#1 75367779 30620479#0 30620479#1-AddedOnRampEdge 30620479#1 72684990 72650899#1 319203387#1 365633482#1 365633482#2 365633482#3 365633482#4 365633482#5 365633658 -75829486#0 -75829484#7"/>
    </vehicle>
    <vehicle id="40" depart="52.64">
        <route edges="51268652#2 51268652#3 -51268678#39 -51268678#38 -51268650#7 -51268650#6 -51268650#5 -51268650#4 -51268650#3 -51268650#2 144500730#4 144500730#7 557843845#3 557843845#6 557843845#7 557843845#8 772891695#0 772891695#1 772891695#2 772891695#3 772891695#4 772891695#5 772891695#6 772891695#7 772891695#8 772891695#9 51354470#0 51354470#1 51272318#3 557553456#0 557553456#1 557553456#2 557553456#5 557553456#6 557553456#8 557553456#9 557553456#10 311964637#1 311964637#2 311964637#3 311964637#5 287735325#1 1241641160 1241641161 51272313 401628856 52907069#1 52907069#2 52907069#5 52907069#6 52907069#7 75258707#1 75258707#2 75258707#5 75258707#6 75258707#9 75258707#11 75258707#12 243905111#1 311139734#3 311139734#4 311139734#7 311139734#8 311139734#9 311139734#11 311139734#12 1230559864 1230560649 1230560650 1230559862 188722640#0 188722640#1 188722640#2 188722640#3 188587032#14 188587032#15 188722645#1 188722645#2 188722645#3 1074594861 1074594862#1 -75258721#1 -75258721#0 -75258740#5 -75258740#4"/>
    </vehicle>
    <vehicle id="41" depart="54.30">
        <route edges="158805066#0 158805134#0 -158805135 -62080907#1 -62080907#0 -449395545#1 -449395545#0 733033728#0 733033728#1 733033728#2 449379870#0 449379870#1 449379870#2 449379856#0 449379856#1 449379856#2 442788100#0 442788100#1 48769273#0 48769273#1-AddedOnRampEdge 48769273#1 506599431#0 506599431#1 506599431#2 506599431#3"/>
    </vehicle>
    <vehicle id="42" depart="54.66">
        <route edges="-98724125#2 -98724125#1 183840100#24 183840100#25 866318728#1 866318728#2 137317907#1 137317904#1 338929664 779271019 779271001#0 779271001#1 137317902 137317913 198589897#0 198589897#1 198589897#2 198589897#3 198589897#4 198589897#5 198589897#6 198589896 264859963 506316028#0 506316028#1 506316028#2 1015062344#0 1015062344#1 1015062348#0 506599423#1 506599423#2 506599423#3 264410144 506599428 311138396#0 311138396#1 311138396#2 311138396#3 506599429#1 506599429#3 506599429#5 506599429#7 51272319#2 51272319#3 51272319#4 51272319#5 51272319#6 51272319#9 51272319#10 51272319#11 51821757#0 51821757#1 772891695#13 772891695#14 772891695#15 772891695#0 772891695#1 772891695#2 1126953800#0 1126953800#1 51272317#1 51272317#2 51272317#5 51272317#6 51272317#7 51272317#8 -327528743#11 -327528743#8 -327528743#5 -327528743#2 -327528743#1"/>